
  SciTegic09291413392D

 33 36  0  0  0  0            999 V2000
   24.3919  -25.8984    0.0000 C   0  0
   26.5160  -24.6684    0.0000 C   0  0
   26.5149  -25.4879    0.0000 C   0  0
   27.2229  -25.8969    0.0000 N   0  0
   27.2211  -24.2595    0.0000 C   0  0
   27.9298  -24.6648    0.0000 C   0  0
   27.9346  -25.4880    0.0000 C   0  0
   28.7190  -25.7378    0.0000 S   0  0
   29.1990  -25.0690    0.0000 C   0  0
   28.7111  -24.4059    0.0000 N   0  0
   30.0161  -25.0641    0.0000 N   0  0
   30.4206  -24.3540    0.0000 C   0  0
   31.2377  -24.3492    0.0000 N   0  0
   30.0078  -23.6487    0.0000 O   0  0
   31.6421  -23.6391    0.0000 C   0  0
   32.4593  -23.6343    0.0000 C   0  0
   25.8069  -25.8960    0.0000 O   0  0
   25.0995  -25.4868    0.0000 C   0  0
   23.0972  -26.1780    0.0000 C   0  0
   23.5088  -26.8856    0.0000 O   0  0
   24.3089  -26.7127    0.0000 C   0  0
   23.6925  -25.4904    0.0000 C   0  0
   25.8103  -24.2602    0.0000 C   0  0
   25.8114  -23.4419    0.0000 C   0  0
   25.1045  -23.0335    0.0000 C   0  0
   24.3959  -23.4423    0.0000 N   0  0
   24.3987  -24.2637    0.0000 C   0  0
   25.1062  -24.6684    0.0000 C   0  0
   25.1047  -22.2163    0.0000 O   0  0
   23.6875  -23.0348    0.0000 C   0  0
   22.9805  -23.4445    0.0000 C   0  0
   22.2721  -23.0371    0.0000 O   0  0
   21.5650  -23.4468    0.0000 C   0  0
  2  3  2  0
  3  4  1  0
  4  7  2  0
  6  5  2  0
  5  2  1  0
  6  7  1  0
  7  8  1  0
  8  9  1  0
  9 10  2  0
 10  6  1  0
  9 11  1  0
 11 12  1  0
 12 13  1  0
 12 14  2  0
 13 15  1  0
 15 16  1  0
  3 17  1  0
 17 18  1  0
 18  1  1  0
  1 22  1  0
 22 19  1  0
 19 20  1  0
 20 21  1  0
 21  1  1  0
 23 24  2  0
 24 25  1  0
 25 26  1  0
 26 27  1  0
 27 28  2  0
 28 23  1  0
  2 23  1  0
 25 29  2  0
 26 30  1  0
 30 31  1  0
 31 32  1  0
 32 33  1  0
M  END
> <From> 
www.bindingDB.org

> <BindingDB Reactant_set_id>
50089955

> <Ligand InChI>
InChI=1S/C22H27N5O5S/c1-3-23-21(29)26-22-24-17-11-16(15-4-6-27(7-9-30-2)18(28)10-15)19(25-20(17)33-22)32-13-14-5-8-31-12-14/h4,6,10-11,14H,3,5,7-9,12-13H2,1-2H3,(H2,23,24,26,29)

> <Ligand InChI Key>
FAJQXGVDBLDGJE-UHFFFAOYSA-N

> <BindingDB MonomerID>
50010376

> <BindingDB Ligand Name>
CHEMBL3263618

> <Target Name Assigned by Curator or DataSource>
DNA gyrase subunit B

> <Target Source Organism According to Curator or DataSource>


> <Ki (nM)>


> <IC50 (nM)>
<0.500000

> <Kd (nM)>


> <EC50 (nM)>


> <kon (M-1-s-1)>


> <koff (s-1)>


> <pH>


> <Temp C>


> <Curation/DataSource>
ChEMBL

> <Article DOI>
10.1021/jm401268f

> <PMID>
24088190

> <PubChem AID>


> <Patent Number>


> <Authors>
Ahuja, V; Ahuja, V; Basavarajappa, H; Basavarajappa, H; P, SH; P, SH; Boriack-Sjodin, PA; Boriack-Sjodin, PA; McKinney, D; McKinney, D; Ganguly, S; Ganguly, S; Kranthi, U; Kranthi, U; Gaonkar, S; Gaonkar, S; Jena, Lk; Jena, Lk; Ghorpade, SR; Ghorpade, SR; Ghosh, A; Ghosh, A; Barde, S; Barde, S; Kale, MG; Kale, MG; Koushik, K; Koushik, K; Kumar, CN; Kumar, CN; Manjunatha, MR; Manjunatha, MR; Ogg, D; Ogg, D; Panduga, V; Panduga, V; Ramya, VK; Ramya, VK; Reddy, J; Reddy, J; Kumar, KN; Kumar, KN; Giridhar, J; Giridhar, J; Rudrapatna, S; Rudrapatna, S; Sharma, S; Sharma, S; Tucker, JA; Tucker, JA; Vachaspati, P; Vachaspati, P; Waterson, D; Waterson, D; de Sousa, SM; de Sousa, SM

> <Institution>
AstraZeneca India Pvt. Ltd.

> <Link to Ligand in BindingDB>
http://www.bindingdb.org/bind/chemsearch/marvin/MolStructure.jsp?monomerid=50010376

> <Link to Ligand-Target Pair in BindingDB>
http://www.bindingdb.org/jsp/dbsearch/PrimarySearch_ki.jsp?energyterm=kJ/mole&tag=pol&polymerid=50006452&target=DNA+gyrase+subunit+B&column=ki&startPg=0&Increment=50&submit=Search

> <Link to Ligand-Target Pair in BindingDB>
http://www.bindingdb.org/jsp/dbsearch/PrimarySearch_ki.jsp?energyterm=kJ/mole&tag=r21&monomerid=50010376&enzyme=DNA+gyrase+subunit+B&column=ki&startPg=0&Increment=50&submit=Search

> <Ligand HET ID in PDB>


> <PDB ID(s) for Ligand-Target Complex>


> <PubChem CID>
72713518

> <PubChem SID>
103923190

> <ChEBI ID of Ligand>


> <ChEMBL ID of Ligand>
CHEMBL3263618

> <DrugBank ID of Ligand>


> <IUPHAR_GRAC ID of Ligand>


> <KEGG ID of Ligand>


> <ZINC ID of Ligand>
ZINC13446639

> <Number of Protein Chains in Target (>1 implies a multichain complex)>
1

> <BindingDB Target Chain Sequence>
MAAQKNNAPKEYGADSITILEGLEAVRKRPGMYIGSTGERGLHHLIWEVVDNAVDEAMAGFATRVDVKIHADGSVEVRDDGRGIPVEMHATGMPTIDVVMTQLHAGGKFDGETYAVSGGLHGVGVSVVNALSTRLEATVLRDGYEWFQYYDRSVPGKLKQGGETKETGTTIRFWADPEIFETTDYNFETVARRLQEMAFLNKGLTIELTDERVTAEEVVDDVVKDTAEAPKTADEKAAEATGPSKVKHRVFHYPGGLVDYVKHINRTKTPIQQSIIDFDGKGPGHEVEIAMQWNAGYSESVHTFANTINTHEGGTHEEGFRAALTSVVNRYAKDKKLLKDKDPNLTGDDIREGLAAVISVKVAEPQFEGQTKTKLGNTEVKSFVQKICNEQLQHWFEANPAEAKTVVNKAVSSAQARIAARKARELVRRKSATDIGGLPGKLADCRSTDPSKSELYVVEGDSAGGSAKSGRDSMFQAILPLRGKIINVEKARIDRVLKNTEVQSIITALGTGIHDEFDISKLRYHKIVLMADADVDGQHISTLLLTLLFRFMKPLVENGHIFLAQPPLYKLKWQRSEPEFAYSDRERDGLLEAGRAAGKKINVDDGIQRYKGLGEMDAKELWETTMDPSVRVLRQVTLDDAAAADELFSILMGEDVEARRSFITRNAKDVRFLDV

> <PDB ID(s) of Target Chain>
4BAE

> <UniProt (SwissProt) Recommended Name of Target Chain>
DNA gyrase subunit B

> <UniProt (SwissProt) Entry Name of Target Chain>
GYRB_MYCSM

> <UniProt (SwissProt) Primary ID of Target Chain>
P0C559

> <UniProt (SwissProt) Secondary ID(s) of Target Chain>
P48355,Q59555

> <UniProt (SwissProt) Alternative ID(s) of Target Chain>


> <UniProt (TrEMBL) Submitted Name of Target Chain>


> <UniProt (TrEMBL) Entry Name of Target Chain>


> <UniProt (TrEMBL) Primary ID of Target Chain>


> <UniProt (TrEMBL) Secondary ID(s) of Target Chain>


> <UniProt (TrEMBL) Alternative ID(s) of Target Chain>


$$$$

  SciTegic09291413392D

 30 33  0  0  0  0            999 V2000
   20.6485  -21.2016    0.0000 C   0  0
   22.7726  -19.9716    0.0000 C   0  0
   22.7715  -20.7912    0.0000 C   0  0
   23.4795  -21.2001    0.0000 N   0  0
   23.4777  -19.5628    0.0000 C   0  0
   24.1864  -19.9680    0.0000 C   0  0
   24.1912  -20.7912    0.0000 C   0  0
   24.9756  -21.0410    0.0000 S   0  0
   25.4556  -20.3722    0.0000 C   0  0
   24.9678  -19.7091    0.0000 N   0  0
   26.2727  -20.3673    0.0000 N   0  0
   26.6772  -19.6572    0.0000 C   0  0
   27.4943  -19.6524    0.0000 N   0  0
   26.2644  -18.9520    0.0000 O   0  0
   27.8987  -18.9423    0.0000 C   0  0
   28.7159  -18.9375    0.0000 C   0  0
   22.0635  -21.1992    0.0000 O   0  0
   21.3561  -20.7900    0.0000 C   0  0
   19.3538  -21.4812    0.0000 C   0  0
   19.7655  -22.1888    0.0000 O   0  0
   20.5655  -22.0159    0.0000 C   0  0
   19.9491  -20.7936    0.0000 C   0  0
   22.0669  -19.5634    0.0000 C   0  0
   22.0680  -18.7451    0.0000 C   0  0
   21.3611  -18.3367    0.0000 C   0  0
   20.6525  -18.7455    0.0000 N   0  0
   20.6553  -19.5670    0.0000 C   0  0
   21.3628  -19.9716    0.0000 C   0  0
   21.3613  -17.5195    0.0000 O   0  0
   19.9441  -18.3381    0.0000 C   0  0
  2  3  2  0
  3  4  1  0
  4  7  2  0
  6  5  2  0
  5  2  1  0
  6  7  1  0
  7  8  1  0
  8  9  1  0
  9 10  2  0
 10  6  1  0
  9 11  1  0
 11 12  1  0
 12 13  1  0
 12 14  2  0
 13 15  1  0
 15 16  1  0
  3 17  1  0
 17 18  1  0
 18  1  1  0
  1 22  1  0
 22 19  1  0
 19 20  1  0
 20 21  1  0
 21  1  1  0
 23 24  2  0
 24 25  1  0
 25 26  1  0
 26 27  1  0
 27 28  2  0
 28 23  1  0
  2 23  1  0
 25 29  2  0
 26 30  1  0
M  END
> <From> 
www.bindingDB.org

> <BindingDB Reactant_set_id>
50089948

> <Ligand InChI>
InChI=1S/C20H23N5O4S/c1-3-21-19(27)24-20-22-15-9-14(13-4-6-25(2)16(26)8-13)17(23-18(15)30-20)29-11-12-5-7-28-10-12/h4,6,8-9,12H,3,5,7,10-11H2,1-2H3,(H2,21,22,24,27)

> <Ligand InChI Key>
AGSYKJIWHRFWAL-UHFFFAOYSA-N

> <BindingDB MonomerID>
50010373

> <BindingDB Ligand Name>
CHEMBL3263615

> <Target Name Assigned by Curator or DataSource>
DNA gyrase subunit B

> <Target Source Organism According to Curator or DataSource>


> <Ki (nM)>


> <IC50 (nM)>
 1.000000

> <Kd (nM)>


> <EC50 (nM)>


> <kon (M-1-s-1)>


> <koff (s-1)>


> <pH>


> <Temp C>


> <Curation/DataSource>
ChEMBL

> <Article DOI>
10.1021/jm401268f

> <PMID>
24088190

> <PubChem AID>


> <Patent Number>


> <Authors>
Ahuja, V; Ahuja, V; Basavarajappa, H; Basavarajappa, H; P, SH; P, SH; Boriack-Sjodin, PA; Boriack-Sjodin, PA; McKinney, D; McKinney, D; Ganguly, S; Ganguly, S; Kranthi, U; Kranthi, U; Gaonkar, S; Gaonkar, S; Jena, Lk; Jena, Lk; Ghorpade, SR; Ghorpade, SR; Ghosh, A; Ghosh, A; Barde, S; Barde, S; Kale, MG; Kale, MG; Koushik, K; Koushik, K; Kumar, CN; Kumar, CN; Manjunatha, MR; Manjunatha, MR; Ogg, D; Ogg, D; Panduga, V; Panduga, V; Ramya, VK; Ramya, VK; Reddy, J; Reddy, J; Kumar, KN; Kumar, KN; Giridhar, J; Giridhar, J; Rudrapatna, S; Rudrapatna, S; Sharma, S; Sharma, S; Tucker, JA; Tucker, JA; Vachaspati, P; Vachaspati, P; Waterson, D; Waterson, D; de Sousa, SM; de Sousa, SM

> <Institution>
AstraZeneca India Pvt. Ltd.

> <Link to Ligand in BindingDB>
http://www.bindingdb.org/bind/chemsearch/marvin/MolStructure.jsp?monomerid=50010373

> <Link to Ligand-Target Pair in BindingDB>
http://www.bindingdb.org/jsp/dbsearch/PrimarySearch_ki.jsp?energyterm=kJ/mole&tag=pol&polymerid=50006452&target=DNA+gyrase+subunit+B&column=ki&startPg=0&Increment=50&submit=Search

> <Link to Ligand-Target Pair in BindingDB>
http://www.bindingdb.org/jsp/dbsearch/PrimarySearch_ki.jsp?energyterm=kJ/mole&tag=r21&monomerid=50010373&enzyme=DNA+gyrase+subunit+B&column=ki&startPg=0&Increment=50&submit=Search

> <Ligand HET ID in PDB>


> <PDB ID(s) for Ligand-Target Complex>


> <PubChem CID>
72713515

> <PubChem SID>
103923187

> <ChEBI ID of Ligand>


> <ChEMBL ID of Ligand>
CHEMBL3263615

> <DrugBank ID of Ligand>


> <IUPHAR_GRAC ID of Ligand>


> <KEGG ID of Ligand>


> <ZINC ID of Ligand>
ZINC26961284

> <Number of Protein Chains in Target (>1 implies a multichain complex)>
1

> <BindingDB Target Chain Sequence>
MAAQKNNAPKEYGADSITILEGLEAVRKRPGMYIGSTGERGLHHLIWEVVDNAVDEAMAGFATRVDVKIHADGSVEVRDDGRGIPVEMHATGMPTIDVVMTQLHAGGKFDGETYAVSGGLHGVGVSVVNALSTRLEATVLRDGYEWFQYYDRSVPGKLKQGGETKETGTTIRFWADPEIFETTDYNFETVARRLQEMAFLNKGLTIELTDERVTAEEVVDDVVKDTAEAPKTADEKAAEATGPSKVKHRVFHYPGGLVDYVKHINRTKTPIQQSIIDFDGKGPGHEVEIAMQWNAGYSESVHTFANTINTHEGGTHEEGFRAALTSVVNRYAKDKKLLKDKDPNLTGDDIREGLAAVISVKVAEPQFEGQTKTKLGNTEVKSFVQKICNEQLQHWFEANPAEAKTVVNKAVSSAQARIAARKARELVRRKSATDIGGLPGKLADCRSTDPSKSELYVVEGDSAGGSAKSGRDSMFQAILPLRGKIINVEKARIDRVLKNTEVQSIITALGTGIHDEFDISKLRYHKIVLMADADVDGQHISTLLLTLLFRFMKPLVENGHIFLAQPPLYKLKWQRSEPEFAYSDRERDGLLEAGRAAGKKINVDDGIQRYKGLGEMDAKELWETTMDPSVRVLRQVTLDDAAAADELFSILMGEDVEARRSFITRNAKDVRFLDV

> <PDB ID(s) of Target Chain>
4BAE

> <UniProt (SwissProt) Recommended Name of Target Chain>
DNA gyrase subunit B

> <UniProt (SwissProt) Entry Name of Target Chain>
GYRB_MYCSM

> <UniProt (SwissProt) Primary ID of Target Chain>
P0C559

> <UniProt (SwissProt) Secondary ID(s) of Target Chain>
P48355,Q59555

> <UniProt (SwissProt) Alternative ID(s) of Target Chain>


> <UniProt (TrEMBL) Submitted Name of Target Chain>


> <UniProt (TrEMBL) Entry Name of Target Chain>


> <UniProt (TrEMBL) Primary ID of Target Chain>


> <UniProt (TrEMBL) Secondary ID(s) of Target Chain>


> <UniProt (TrEMBL) Alternative ID(s) of Target Chain>


$$$$

  Mrv0541 03271611212D          

 43 47  0  0  0  0            999 V2000
   20.6803   -6.4200    0.0000 N   0  0  0  0  0  0  0  0  0  0  0  0
   21.5044   -6.3825    0.0000 C   0  0  0  0  0  0  0  0  0  0  0  0
   22.7893   -6.7352    0.0000 C   0  0  0  0  0  0  0  0  0  0  0  0
   14.9671   -5.0630    0.0000 Cl  0  0  0  0  0  0  0  0  0  0  0  0
   22.7520   -5.9110    0.0000 C   0  0  0  0  0  0  0  0  0  0  0  0
   16.4886   -6.5603    0.0000 N   0  0  0  0  0  0  0  0  0  0  0  0
   15.0485   -6.8561    0.0000 C   0  0  0  0  0  0  0  0  0  0  0  0
   17.7634   -5.8373    0.0000 C   0  0  0  0  0  0  0  0  0  0  0  0
   24.1647   -5.6972    0.0000 O   0  0  0  0  0  0  0  0  0  0  0  0
   19.4076   -5.7650    0.0000 C   0  0  0  0  0  0  0  0  0  0  0  0
   15.6558   -5.5172    0.0000 C   0  0  0  0  0  0  0  0  0  0  0  0
   21.9566   -5.6920    0.0000 S   0  0  0  0  0  0  0  0  0  0  0  0
   23.2732   -4.5806    0.0000 O   0  0  0  0  0  0  0  0  0  0  0  0
   22.0171   -7.0254    0.0000 N   0  0  0  0  0  0  0  0  0  0  0  0
   20.2964   -7.1502    0.0000 C   0  0  0  0  0  0  0  0  0  0  0  0
   18.2674   -7.9557    0.0000 C   0  0  0  0  0  0  0  0  0  0  0  0
   24.2157   -6.8198    0.0000 N   0  0  0  0  0  0  0  0  0  0  0  0
   16.6492   -4.4322    0.0000 Cl  0  0  0  0  0  0  0  0  0  0  0  0
   19.4722   -7.1875    0.0000 C   0  0  2  0  0  0  0  0  0  0  0  0
   19.0916   -7.9194    0.0000 O   0  0  0  0  0  0  0  0  0  0  0  0
   24.1181   -8.4669    0.0000 N   0  0  0  0  0  0  0  0  0  0  0  0
   23.4293   -8.0128    0.0000 C   0  0  0  0  0  0  0  0  0  0  0  0
   18.2079   -6.5323    0.0000 N   0  0  0  0  0  0  0  0  0  0  0  0
   23.4781   -7.1892    0.0000 C   0  0  0  0  0  0  0  0  0  0  0  0
   16.4280   -5.2270    0.0000 C   0  0  0  0  0  0  0  0  0  0  0  0
   24.9046   -7.2739    0.0000 C   0  0  0  0  0  0  0  0  0  0  0  0
   15.6932   -6.3414    0.0000 C   0  0  0  0  0  0  0  0  0  0  0  0
   23.3966   -5.3962    0.0000 C   0  0  0  0  0  0  0  0  0  0  0  0
   24.8557   -8.0974    0.0000 C   0  0  0  0  0  0  0  0  0  0  0  0
   19.0321   -6.4948    0.0000 C   0  0  2  0  0  0  0  0  0  0  0  0
   20.2318   -5.7277    0.0000 C   0  0  0  0  0  0  0  0  0  0  0  0
   18.1431   -5.1048    0.0000 O   0  0  0  0  0  0  0  0  0  0  0  0
   16.9394   -5.8747    0.0000 C   0  0  0  0  0  0  0  0  0  0  0  0
   25.6423   -6.9045    0.0000 N   0  0  0  0  0  0  0  0  0  0  0  0
   26.3311   -7.3586    0.0000 C   0  0  0  0  0  0  0  0  0  0  0  0
   27.0687   -6.9891    0.0000 C   0  0  0  0  0  0  0  0  0  0  0  0
   27.7575   -7.4432    0.0000 N   0  0  0  0  0  0  0  0  0  0  0  0
   27.7086   -8.2668    0.0000 C   0  0  0  0  0  0  0  0  0  0  0  0
   28.3975   -8.7209    0.0000 C   0  0  0  0  0  0  0  0  0  0  0  0
   29.1351   -8.3514    0.0000 N   0  0  0  0  0  0  0  0  0  0  0  0
   29.1840   -7.5278    0.0000 C   0  0  0  0  0  0  0  0  0  0  0  0
   28.4952   -7.0737    0.0000 C   0  0  0  0  0  0  0  0  0  0  0  0
   29.8239   -8.8055    0.0000 C   0  0  0  0  0  0  0  0  0  0  0  0
 25 18  1  0  0  0  0
 29 26  4  0  0  0  0
 20 16  1  0  0  0  0
 24 22  4  0  0  0  0
 14  3  4  0  0  0  0
 31  1  1  0  0  0  0
 24 17  4  0  0  0  0
  8 33  1  0  0  0  0
 11  4  1  0  0  0  0
 28 13  2  0  0  0  0
 25 11  4  0  0  0  0
  2 14  4  0  0  0  0
 19 30  1  0  0  0  0
 33 25  4  0  0  0  0
  5 28  1  0  0  0  0
  1  2  1  0  0  0  0
 19 20  1  6  0  0  0
 19 15  1  0  0  0  0
 27  6  4  0  0  0  0
 12  2  4  0  0  0  0
 28  9  1  0  0  0  0
 31 10  1  0  0  0  0
  8 32  2  0  0  0  0
 11 27  4  0  0  0  0
  3 24  1  0  0  0  0
  5 12  4  0  0  0  0
 21 29  4  0  0  0  0
  6 33  4  0  0  0  0
  3  5  4  0  0  0  0
 30 10  1  0  0  0  0
 22 21  4  0  0  0  0
 27  7  1  0  0  0  0
 30 23  1  6  0  0  0
 23  8  1  0  0  0  0
 26 17  4  0  0  0  0
 15  1  1  0  0  0  0
 26 34  1  0  0  0  0
 34 35  1  0  0  0  0
 35 36  1  0  0  0  0
 36 37  1  0  0  0  0
 37 38  1  0  0  0  0
 37 42  1  0  0  0  0
 38 39  1  0  0  0  0
 39 40  1  0  0  0  0
 40 41  1  0  0  0  0
 41 42  1  0  0  0  0
 40 43  1  0  0  0  0
M  STY  1   1 DAT
M  SAL   1  1   6
M  SDT   1 MRV_IMPLICIT_H                                        
M  SDD   1     0.0000    0.0000    DR    ALL  0       0  
M  SED   1 IMPL_H1
M  END
> <From> 
www.bindingDB.org

> <BindingDB Reactant_set_id>
50271410

> <Ligand InChI>
InChI=1S/C27H35Cl2N9O4S/c1-15-20(28)21(29)23(32-15)25(39)34-16-4-6-38(14-18(16)42-3)27-35-22(24(43-27)26(40)41)17-12-30-13-19(33-17)31-5-7-37-10-8-36(2)9-11-37/h12-13,16,18,32H,4-11,14H2,1-3H3,(H,31,33)(H,34,39)(H,40,41)/t16-,18+/m1/s1

> <Ligand InChI Key>
OZKUQOZGHQRJHO-AEFFLSMTSA-N

> <BindingDB MonomerID>
50047345

> <BindingDB Ligand Name>
CHEMBL3314588

> <Target Name Assigned by Curator or DataSource>
DNA Gyrase Subunit B

> <Target Source Organism According to Curator or DataSource>
Staphylococcus aureus

> <Ki (nM)>


> <IC50 (nM)>
 1.2

> <Kd (nM)>


> <EC50 (nM)>


> <kon (M-1-s-1)>


> <koff (s-1)>


> <pH>


> <Temp C>


> <Curation/DataSource>
ChEMBL

> <Article DOI>
10.1021/jm500462x

> <PMID>
24959892

> <PubChem AID>


> <Patent Number>


> <Authors>
Basarab, GS; Hill, PJ; Garner, CE; Hull, K; Green, O; Sherer, BA; Dangel, PB; Manchester, JI; Bist, S; Hauck, S; Zhou, F; Uria-Nickelsen, M; Illingworth, R; Alm, R; Rooney, M; Eakin, AE

> <Institution>
AstraZeneca

> <Link to Ligand in BindingDB>
http://www.bindingdb.org/bind/chemsearch/marvin/MolStructure.jsp?monomerid=50047345

> <Link to Ligand-Target Pair in BindingDB>
http://www.bindingdb.org/jsp/dbsearch/PrimarySearch_ki.jsp?energyterm=kJ/mole&tag=pol&polymerid=2626&target=DNA+Gyrase+Subunit+B&column=ki&startPg=0&Increment=50&submit=Search

> <Link to Ligand-Target Pair in BindingDB>
http://www.bindingdb.org/jsp/dbsearch/PrimarySearch_ki.jsp?energyterm=kJ/mole&tag=r21&monomerid=50047345&enzyme=DNA+Gyrase+Subunit+B&column=ki&startPg=0&Increment=50&submit=Search

> <Ligand HET ID in PDB>


> <PDB ID(s) for Ligand-Target Complex>


> <PubChem CID>
118707661

> <PubChem SID>
313068773

> <ChEBI ID of Ligand>


> <ChEMBL ID of Ligand>


> <DrugBank ID of Ligand>


> <IUPHAR_GRAC ID of Ligand>


> <KEGG ID of Ligand>


> <ZINC ID of Ligand>


> <Number of Protein Chains in Target (>1 implies a multichain complex)>
1

> <BindingDB Target Chain Sequence>
MVTALSDVNNTDNYGAGQIQVLEGLEAVRKRPGMYIGSTSERGLHHLVWEIVDNSIDEALAGYANQIEVVIEKDNWIKVTDNGRGIPVDIQEKMGRPAVEVILTVLHAGGKFGGGGYKVSGGLHGVGSSVVNALSQDLEVYVHRNETIYHQAYKKGVPQFDLKEVGTTDKTGTVIRFKADGEIFTETTVYNYETLQQRIRELAFLNKGIQITLRDERDEENVREDSYHYEGGIKSYVELLNENKEPIHDEPIYIHQSKDDIEVEIAIQYNSGYATNLLTYANNIHTYEGGTHEDGFKRALTRVLNSYGLSSKIMKEEKDRLSGEDTREGMTAIISIKHGDPQFEGQTKTKLGNSEVRQVVDKLFSEHFERFLYENPQVARTVVEKGIMAARARVAAKKAREVTRRKSALDVASLPGKLADCSSKSPEECEIFLVEGDSAGGSTKSGRDSRTQAILPLRGKILNVEKARLDRILNNNEIRQMITAFGTGIGGDFDLAKARYHKIVIMTDADVDGAHIRTLLLTFFYRFMRPLIEAGYVYIAQPPLYKLTQGKQKYYVYNDRELDKLKSELNPTPKWSIARYKGLGEMNADQLWETTMNPEHRALLQVKLEDAIEADQTFEMLMGDVVENRRQFIEDNAVYANLDF

> <PDB ID(s) of Target Chain>


> <UniProt (SwissProt) Recommended Name of Target Chain>
DNA gyrase subunit B

> <UniProt (SwissProt) Entry Name of Target Chain>
GYRB_STAAU

> <UniProt (SwissProt) Primary ID of Target Chain>
P0A0K8

> <UniProt (SwissProt) Secondary ID(s) of Target Chain>
P20832

> <UniProt (SwissProt) Alternative ID(s) of Target Chain>


> <UniProt (TrEMBL) Submitted Name of Target Chain>


> <UniProt (TrEMBL) Entry Name of Target Chain>


> <UniProt (TrEMBL) Primary ID of Target Chain>


> <UniProt (TrEMBL) Secondary ID(s) of Target Chain>


> <UniProt (TrEMBL) Alternative ID(s) of Target Chain>


$$$$

  Mrv0541 11241412072D          

 37 41  0  0  0  0            999 V2000
    8.7116   -8.2562    0.0000 C   0  0  0  0  0  0  0  0  0  0  0  0
    9.4280   -7.8430    0.0000 C   0  0  0  0  0  0  0  0  0  0  0  0
    9.4251   -7.0125    0.0000 C   0  0  0  0  0  0  0  0  0  0  0  0
    8.7098   -6.6033    0.0000 N   0  0  0  0  0  0  0  0  0  0  0  0
    7.9968   -7.8435    0.0000 C   0  0  0  0  0  0  0  0  0  0  0  0
    7.9981   -7.0145    0.0000 C   0  0  0  0  0  0  0  0  0  0  0  0
    7.2102   -6.7572    0.0000 N   0  0  0  0  0  0  0  0  0  0  0  0
    6.7219   -7.4271    0.0000 C   0  0  0  0  0  0  0  0  0  0  0  0
    7.2082   -8.0983    0.0000 C   0  0  0  0  0  0  0  0  0  0  0  0
   10.1395   -8.2535    0.0000 C   0  0  0  0  0  0  0  0  0  0  0  0
   10.1395   -9.0796    0.0000 C   0  0  0  0  0  0  0  0  0  0  0  0
   10.8538   -9.4908    0.0000 C   0  0  0  0  0  0  0  0  0  0  0  0
   11.5685   -9.0772    0.0000 C   0  0  0  0  0  0  0  0  0  0  0  0
   11.5645   -8.2480    0.0000 N   0  0  0  0  0  0  0  0  0  0  0  0
   10.8498   -7.8405    0.0000 C   0  0  0  0  0  0  0  0  0  0  0  0
    8.7138   -9.0775    0.0000 N   0  0  0  0  0  0  0  0  0  0  0  0
    8.0462   -9.5622    0.0000 N   0  0  0  0  0  0  0  0  0  0  0  0
    8.3010  -10.3469    0.0000 C   0  0  0  0  0  0  0  0  0  0  0  0
    9.1260  -10.3471    0.0000 C   0  0  0  0  0  0  0  0  0  0  0  0
    9.3810   -9.5625    0.0000 C   0  0  0  0  0  0  0  0  0  0  0  0
    5.8970   -7.4259    0.0000 C   0  0  0  0  0  0  0  0  0  0  0  0
    5.4855   -6.7108    0.0000 N   0  0  0  0  0  0  0  0  0  0  0  0
    5.4835   -8.1397    0.0000 O   0  0  0  0  0  0  0  0  0  0  0  0
    4.6606   -6.7096    0.0000 C   0  0  0  0  0  0  0  0  0  0  0  0
    4.2492   -5.9947    0.0000 C   0  0  0  0  0  0  0  0  0  0  0  0
    7.8160  -11.0142    0.0000 C   0  0  0  0  0  0  0  0  0  0  0  0
    6.9870  -11.0075    0.0000 F   0  0  0  0  0  0  0  0  0  0  0  0
    8.1875  -11.7508    0.0000 F   0  0  0  0  0  0  0  0  0  0  0  0
    7.2245  -11.5950    0.0000 F   0  0  0  0  0  0  0  0  0  0  0  0
   10.8463   -7.0155    0.0000 O   0  0  0  0  0  0  0  0  0  0  0  0
   11.5589   -6.6000    0.0000 C   0  0  0  0  0  0  0  0  0  0  0  0
   10.8584  -10.3186    0.0000 C   0  0  0  0  0  0  0  0  0  0  0  0
   10.1916  -10.8042    0.0000 N   0  0  0  0  0  0  0  0  0  0  0  0
   10.4474  -11.5885    0.0000 N   0  0  0  0  0  0  0  0  0  0  0  0
   11.2723  -11.5876    0.0000 C   0  0  0  0  0  0  0  0  0  0  0  0
   11.5263  -10.8028    0.0000 O   0  0  0  0  0  0  0  0  0  0  0  0
   11.7581  -12.2544    0.0000 O   0  0  0  0  0  0  0  0  0  0  0  0
 11 12  2  0  0  0  0
  8 21  1  0  0  0  0
  5  1  2  0  0  0  0
 21 22  1  0  0  0  0
 12 13  1  0  0  0  0
 21 23  2  0  0  0  0
  2  3  2  0  0  0  0
 22 24  1  0  0  0  0
 13 14  2  0  0  0  0
 24 25  1  0  0  0  0
 14 15  1  0  0  0  0
 15 10  2  0  0  0  0
  2 10  1  0  0  0  0
 16 17  1  0  0  0  0
  3  4  1  0  0  0  0
  6  7  1  0  0  0  0
  7  8  1  0  0  0  0
 18 26  1  0  0  0  0
  8  9  2  0  0  0  0
 26 27  1  0  0  0  0
  9  5  1  0  0  0  0
 26 28  1  0  0  0  0
 17 18  2  0  0  0  0
 26 29  1  0  0  0  0
 18 19  1  0  0  0  0
 15 30  1  0  0  0  0
 19 20  2  0  0  0  0
 30 31  1  0  0  0  0
 32 33  2  0  0  0  0
 20 16  1  0  0  0  0
  1 16  1  0  0  0  0
  4  6  2  0  0  0  0
  5  6  1  0  0  0  0
 10 11  1  0  0  0  0
 33 34  1  0  0  0  0
 34 35  1  0  0  0  0
 35 36  1  0  0  0  0
 36 32  1  0  0  0  0
 12 32  1  0  0  0  0
  1  2  1  0  0  0  0
 35 37  2  0  0  0  0
M  END
> <From> 
www.bindingDB.org

> <BindingDB Reactant_set_id>
50945998

> <Ligand InChI>
InChI=1S/C22H17F3N8O4/c1-3-26-18(34)14-7-12-16(33-5-4-15(32-33)22(23,24)25)13(9-27-17(12)29-14)11-6-10(8-28-20(11)36-2)19-30-31-21(35)37-19/h4-9H,3H2,1-2H3,(H,26,34)(H,27,29)(H,31,35)

> <Ligand InChI Key>
OTNMRRPSGWSTAE-UHFFFAOYSA-N

> <BindingDB MonomerID>
50388101

> <BindingDB Ligand Name>
CHEMBL2059380

> <Target Name Assigned by Curator or DataSource>
DNA Gyrase Subunit B

> <Target Source Organism According to Curator or DataSource>
Staphylococcus aureus

> <Ki (nM)>


> <IC50 (nM)>
 2

> <Kd (nM)>


> <EC50 (nM)>


> <kon (M-1-s-1)>


> <koff (s-1)>


> <pH>


> <Temp C>


> <Curation/DataSource>
ChEMBL

> <Article DOI>
10.1016/j.bmcl.2012.05.128

> <PMID>
22814212

> <PubChem AID>


> <Patent Number>


> <Authors>
Manchester, JI; Dussault, DD; Rose, JA; Boriack-Sjodin, PA; Uria-Nickelsen, M; Ioannidis, G; Bist, S; Fleming, P; Hull, KG

> <Institution>
AstraZeneca

> <Link to Ligand in BindingDB>
http://www.bindingdb.org/bind/chemsearch/marvin/MolStructure.jsp?monomerid=50388101

> <Link to Ligand-Target Pair in BindingDB>
http://www.bindingdb.org/jsp/dbsearch/PrimarySearch_ki.jsp?energyterm=kJ/mole&tag=pol&polymerid=2626&target=DNA+Gyrase+Subunit+B&column=ki&startPg=0&Increment=50&submit=Search

> <Link to Ligand-Target Pair in BindingDB>
http://www.bindingdb.org/jsp/dbsearch/PrimarySearch_ki.jsp?energyterm=kJ/mole&tag=r21&monomerid=50388101&enzyme=DNA+Gyrase+Subunit+B&column=ki&startPg=0&Increment=50&submit=Search

> <Ligand HET ID in PDB>


> <PDB ID(s) for Ligand-Target Complex>


> <PubChem CID>
62705863

> <PubChem SID>
160867184

> <ChEBI ID of Ligand>


> <ChEMBL ID of Ligand>
CHEMBL2059380

> <DrugBank ID of Ligand>


> <IUPHAR_GRAC ID of Ligand>


> <KEGG ID of Ligand>


> <ZINC ID of Ligand>
ZINC84687922

> <Number of Protein Chains in Target (>1 implies a multichain complex)>
1

> <BindingDB Target Chain Sequence>
MVTALSDVNNTDNYGAGQIQVLEGLEAVRKRPGMYIGSTSERGLHHLVWEIVDNSIDEALAGYANQIEVVIEKDNWIKVTDNGRGIPVDIQEKMGRPAVEVILTVLHAGGKFGGGGYKVSGGLHGVGSSVVNALSQDLEVYVHRNETIYHQAYKKGVPQFDLKEVGTTDKTGTVIRFKADGEIFTETTVYNYETLQQRIRELAFLNKGIQITLRDERDEENVREDSYHYEGGIKSYVELLNENKEPIHDEPIYIHQSKDDIEVEIAIQYNSGYATNLLTYANNIHTYEGGTHEDGFKRALTRVLNSYGLSSKIMKEEKDRLSGEDTREGMTAIISIKHGDPQFEGQTKTKLGNSEVRQVVDKLFSEHFERFLYENPQVARTVVEKGIMAARARVAAKKAREVTRRKSALDVASLPGKLADCSSKSPEECEIFLVEGDSAGGSTKSGRDSRTQAILPLRGKILNVEKARLDRILNNNEIRQMITAFGTGIGGDFDLAKARYHKIVIMTDADVDGAHIRTLLLTFFYRFMRPLIEAGYVYIAQPPLYKLTQGKQKYYVYNDRELDKLKSELNPTPKWSIARYKGLGEMNADQLWETTMNPEHRALLQVKLEDAIEADQTFEMLMGDVVENRRQFIEDNAVYANLDF

> <PDB ID(s) of Target Chain>


> <UniProt (SwissProt) Recommended Name of Target Chain>
DNA gyrase subunit B

> <UniProt (SwissProt) Entry Name of Target Chain>
GYRB_STAAU

> <UniProt (SwissProt) Primary ID of Target Chain>
P0A0K8

> <UniProt (SwissProt) Secondary ID(s) of Target Chain>
P20832

> <UniProt (SwissProt) Alternative ID(s) of Target Chain>


> <UniProt (TrEMBL) Submitted Name of Target Chain>


> <UniProt (TrEMBL) Entry Name of Target Chain>


> <UniProt (TrEMBL) Primary ID of Target Chain>


> <UniProt (TrEMBL) Secondary ID(s) of Target Chain>


> <UniProt (TrEMBL) Alternative ID(s) of Target Chain>


$$$$

  SciTegic09291413392D

 37 41  0  0  0  0            999 V2000
   27.5459  -32.9167    0.0000 C   0  0
   29.6903  -31.6751    0.0000 C   0  0
   29.6892  -32.5024    0.0000 C   0  0
   30.4039  -32.9153    0.0000 N   0  0
   30.4021  -31.2623    0.0000 C   0  0
   31.1175  -31.6714    0.0000 C   0  0
   31.1224  -32.5024    0.0000 C   0  0
   31.9142  -32.7546    0.0000 S   0  0
   32.3989  -32.0794    0.0000 C   0  0
   31.9064  -31.4101    0.0000 N   0  0
   33.2238  -32.0746    0.0000 N   0  0
   33.6321  -31.3577    0.0000 C   0  0
   34.4571  -31.3527    0.0000 N   0  0
   33.2155  -30.6456    0.0000 O   0  0
   34.8654  -30.6358    0.0000 C   0  0
   35.6904  -30.6310    0.0000 C   0  0
   28.9743  -32.9143    0.0000 O   0  0
   28.2602  -32.5013    0.0000 C   0  0
   26.2388  -33.1990    0.0000 C   0  0
   26.6543  -33.9135    0.0000 O   0  0
   27.4621  -33.7389    0.0000 C   0  0
   26.8398  -32.5048    0.0000 C   0  0
   28.9778  -31.2629    0.0000 C   0  0
   28.9790  -30.4368    0.0000 C   0  0
   28.2652  -30.0246    0.0000 C   0  0
   27.5499  -30.4373    0.0000 N   0  0
   27.5528  -31.2665    0.0000 C   0  0
   28.2670  -31.6750    0.0000 C   0  0
   28.2654  -29.1995    0.0000 O   0  0
   26.8348  -30.0259    0.0000 C   0  0
   26.8334  -29.2009    0.0000 C   0  0
   25.4045  -29.2031    0.0000 C   0  0
   26.1175  -28.7921    0.0000 N   0  0
   26.1179  -27.9736    0.0000 C   0  0
   25.4071  -27.5601    0.0000 C   0  0
   24.6942  -27.9712    0.0000 O   0  0
   24.6921  -28.7958    0.0000 C   0  0
  2  3  2  0
  3  4  1  0
  4  7  2  0
  6  5  2  0
  5  2  1  0
  6  7  1  0
  7  8  1  0
  8  9  1  0
  9 10  2  0
 10  6  1  0
  9 11  1  0
 11 12  1  0
 12 13  1  0
 12 14  2  0
 13 15  1  0
 15 16  1  0
  3 17  1  0
 17 18  1  0
 18  1  1  0
  1 22  1  0
 22 19  1  0
 19 20  1  0
 20 21  1  0
 21  1  1  0
 23 24  2  0
 24 25  1  0
 25 26  1  0
 26 27  1  0
 27 28  2  0
 28 23  1  0
  2 23  1  0
 25 29  2  0
 26 30  1  0
 30 31  1  0
 31 33  1  0
 32 33  1  0
 32 37  1  0
 33 34  1  0
 34 35  1  0
 35 36  1  0
 36 37  1  0
M  END
> <From> 
www.bindingDB.org

> <BindingDB Reactant_set_id>
50089888

> <Ligand InChI>
InChI=1S/C25H32N6O5S/c1-2-26-24(33)29-25-27-20-14-19(22(28-23(20)37-25)36-16-17-4-10-35-15-17)18-3-5-31(21(32)13-18)7-6-30-8-11-34-12-9-30/h3,5,13-14,17H,2,4,6-12,15-16H2,1H3,(H2,26,27,29,33)

> <Ligand InChI Key>
LZSAGZMEPYHKGP-UHFFFAOYSA-N

> <BindingDB MonomerID>
50010340

> <BindingDB Ligand Name>
CHEMBL3263621

> <Target Name Assigned by Curator or DataSource>
DNA gyrase subunit B

> <Target Source Organism According to Curator or DataSource>


> <Ki (nM)>


> <IC50 (nM)>
 2.2

> <Kd (nM)>


> <EC50 (nM)>


> <kon (M-1-s-1)>


> <koff (s-1)>


> <pH>


> <Temp C>


> <Curation/DataSource>
ChEMBL

> <Article DOI>
10.1021/jm401268f

> <PMID>
24088190

> <PubChem AID>


> <Patent Number>


> <Authors>
Ahuja, V; Ahuja, V; Basavarajappa, H; Basavarajappa, H; P, SH; P, SH; Boriack-Sjodin, PA; Boriack-Sjodin, PA; McKinney, D; McKinney, D; Ganguly, S; Ganguly, S; Kranthi, U; Kranthi, U; Gaonkar, S; Gaonkar, S; Jena, Lk; Jena, Lk; Ghorpade, SR; Ghorpade, SR; Ghosh, A; Ghosh, A; Barde, S; Barde, S; Kale, MG; Kale, MG; Koushik, K; Koushik, K; Kumar, CN; Kumar, CN; Manjunatha, MR; Manjunatha, MR; Ogg, D; Ogg, D; Panduga, V; Panduga, V; Ramya, VK; Ramya, VK; Reddy, J; Reddy, J; Kumar, KN; Kumar, KN; Giridhar, J; Giridhar, J; Rudrapatna, S; Rudrapatna, S; Sharma, S; Sharma, S; Tucker, JA; Tucker, JA; Vachaspati, P; Vachaspati, P; Waterson, D; Waterson, D; de Sousa, SM; de Sousa, SM

> <Institution>
AstraZeneca India Pvt. Ltd.

> <Link to Ligand in BindingDB>
http://www.bindingdb.org/bind/chemsearch/marvin/MolStructure.jsp?monomerid=50010340

> <Link to Ligand-Target Pair in BindingDB>
http://www.bindingdb.org/jsp/dbsearch/PrimarySearch_ki.jsp?energyterm=kJ/mole&tag=pol&polymerid=50006452&target=DNA+gyrase+subunit+B&column=ki&startPg=0&Increment=50&submit=Search

> <Link to Ligand-Target Pair in BindingDB>
http://www.bindingdb.org/jsp/dbsearch/PrimarySearch_ki.jsp?energyterm=kJ/mole&tag=r21&monomerid=50010340&enzyme=DNA+gyrase+subunit+B&column=ki&startPg=0&Increment=50&submit=Search

> <Ligand HET ID in PDB>


> <PDB ID(s) for Ligand-Target Complex>


> <PubChem CID>
72713522

> <PubChem SID>
103923154

> <ChEBI ID of Ligand>


> <ChEMBL ID of Ligand>
CHEMBL3263621

> <DrugBank ID of Ligand>


> <IUPHAR_GRAC ID of Ligand>


> <KEGG ID of Ligand>


> <ZINC ID of Ligand>


> <Number of Protein Chains in Target (>1 implies a multichain complex)>
1

> <BindingDB Target Chain Sequence>
MAAQKNNAPKEYGADSITILEGLEAVRKRPGMYIGSTGERGLHHLIWEVVDNAVDEAMAGFATRVDVKIHADGSVEVRDDGRGIPVEMHATGMPTIDVVMTQLHAGGKFDGETYAVSGGLHGVGVSVVNALSTRLEATVLRDGYEWFQYYDRSVPGKLKQGGETKETGTTIRFWADPEIFETTDYNFETVARRLQEMAFLNKGLTIELTDERVTAEEVVDDVVKDTAEAPKTADEKAAEATGPSKVKHRVFHYPGGLVDYVKHINRTKTPIQQSIIDFDGKGPGHEVEIAMQWNAGYSESVHTFANTINTHEGGTHEEGFRAALTSVVNRYAKDKKLLKDKDPNLTGDDIREGLAAVISVKVAEPQFEGQTKTKLGNTEVKSFVQKICNEQLQHWFEANPAEAKTVVNKAVSSAQARIAARKARELVRRKSATDIGGLPGKLADCRSTDPSKSELYVVEGDSAGGSAKSGRDSMFQAILPLRGKIINVEKARIDRVLKNTEVQSIITALGTGIHDEFDISKLRYHKIVLMADADVDGQHISTLLLTLLFRFMKPLVENGHIFLAQPPLYKLKWQRSEPEFAYSDRERDGLLEAGRAAGKKINVDDGIQRYKGLGEMDAKELWETTMDPSVRVLRQVTLDDAAAADELFSILMGEDVEARRSFITRNAKDVRFLDV

> <PDB ID(s) of Target Chain>
4BAE

> <UniProt (SwissProt) Recommended Name of Target Chain>
DNA gyrase subunit B

> <UniProt (SwissProt) Entry Name of Target Chain>
GYRB_MYCSM

> <UniProt (SwissProt) Primary ID of Target Chain>
P0C559

> <UniProt (SwissProt) Secondary ID(s) of Target Chain>
P48355,Q59555

> <UniProt (SwissProt) Alternative ID(s) of Target Chain>


> <UniProt (TrEMBL) Submitted Name of Target Chain>


> <UniProt (TrEMBL) Entry Name of Target Chain>


> <UniProt (TrEMBL) Primary ID of Target Chain>


> <UniProt (TrEMBL) Secondary ID(s) of Target Chain>


> <UniProt (TrEMBL) Alternative ID(s) of Target Chain>


$$$$

  Mrv0541 11241420052D          

 31 33  0  0  0  0            999 V2000
   13.8943  -22.4956    0.0000 C   0  0  0  0  0  0  0  0  0  0  0  0
   13.8931  -23.3229    0.0000 C   0  0  0  0  0  0  0  0  0  0  0  0
   14.6079  -23.7358    0.0000 N   0  0  0  0  0  0  0  0  0  0  0  0
   14.6061  -22.0828    0.0000 C   0  0  0  0  0  0  0  0  0  0  0  0
   13.1797  -22.0832    0.0000 C   0  0  0  0  0  0  0  0  0  0  0  0
   15.3215  -22.4920    0.0000 C   0  0  0  0  0  0  0  0  0  0  0  0
   15.3218  -23.3229    0.0000 C   0  0  0  0  0  0  0  0  0  0  0  0
   16.1121  -23.5795    0.0000 S   0  0  0  0  0  0  0  0  0  0  0  0
   16.6006  -22.9071    0.0000 C   0  0  0  0  0  0  0  0  0  0  0  0
   16.1117  -22.2349    0.0000 N   0  0  0  0  0  0  0  0  0  0  0  0
   17.4256  -22.9068    0.0000 N   0  0  0  0  0  0  0  0  0  0  0  0
   17.8377  -22.1921    0.0000 C   0  0  0  0  0  0  0  0  0  0  0  0
   18.6627  -22.1919    0.0000 O   0  0  0  0  0  0  0  0  0  0  0  0
   17.4250  -21.4779    0.0000 N   0  0  0  0  0  0  0  0  0  0  0  0
   17.8372  -20.7632    0.0000 C   0  0  0  0  0  0  0  0  0  0  0  0
   17.4245  -20.0490    0.0000 C   0  0  0  0  0  0  0  0  0  0  0  0
   13.1783  -23.7348    0.0000 O   0  0  0  0  0  0  0  0  0  0  0  0
   14.6081  -24.5608    0.0000 C   0  0  0  0  0  0  0  0  0  0  0  0
   13.8938  -24.9735    0.0000 C   0  0  0  0  0  0  0  0  0  0  0  0
   15.3227  -24.9731    0.0000 C   0  0  0  0  0  0  0  0  0  0  0  0
   13.1829  -21.2573    0.0000 C   0  0  0  0  0  0  0  0  0  0  0  0
   12.4692  -20.8451    0.0000 C   0  0  0  0  0  0  0  0  0  0  0  0
   11.7538  -21.2578    0.0000 N   0  0  0  0  0  0  0  0  0  0  0  0
   11.7568  -22.0870    0.0000 C   0  0  0  0  0  0  0  0  0  0  0  0
   12.4710  -22.4956    0.0000 C   0  0  0  0  0  0  0  0  0  0  0  0
   12.4694  -20.0201    0.0000 O   0  0  0  0  0  0  0  0  0  0  0  0
   11.0388  -20.8464    0.0000 C   0  0  0  0  0  0  0  0  0  0  0  0
   11.0375  -20.0214    0.0000 C   0  0  0  0  0  0  0  0  0  0  0  0
   10.3224  -19.6100    0.0000 O   0  0  0  0  0  0  0  0  0  0  0  0
   10.3211  -18.7850    0.0000 C   0  0  0  0  0  0  0  0  0  0  0  0
   11.0438  -22.5022    0.0000 C   0  0  0  0  0  0  0  0  0  0  0  0
  1  2  1  0  0  0  0
  2  3  1  0  0  0  0
  3  7  1  0  0  0  0
  6  4  1  0  0  0  0
  4  1  2  0  0  0  0
  1  5  1  0  0  0  0
  6  7  2  0  0  0  0
  7  8  1  0  0  0  0
  8  9  1  0  0  0  0
  9 10  2  0  0  0  0
 10  6  1  0  0  0  0
  9 11  1  0  0  0  0
 11 12  1  0  0  0  0
 12 13  2  0  0  0  0
 12 14  1  0  0  0  0
 14 15  1  0  0  0  0
 15 16  1  0  0  0  0
  2 17  2  0  0  0  0
  3 18  1  0  0  0  0
 18 19  1  0  0  0  0
 18 20  1  0  0  0  0
  5 21  2  0  0  0  0
 21 22  1  0  0  0  0
 22 23  1  0  0  0  0
 23 24  1  0  0  0  0
 24 25  2  0  0  0  0
 25  5  1  0  0  0  0
 22 26  2  0  0  0  0
 23 27  1  0  0  0  0
 27 28  1  0  0  0  0
 28 29  1  0  0  0  0
 29 30  1  0  0  0  0
 24 31  1  0  0  0  0
M  END
> <From> 
www.bindingDB.org

> <BindingDB Reactant_set_id>
51091611

> <Ligand InChI>
InChI=1S/C21H27N5O4S/c1-6-22-20(29)24-21-23-16-11-15(18(28)26(12(2)3)19(16)31-21)14-9-13(4)25(7-8-30-5)17(27)10-14/h9-12H,6-8H2,1-5H3,(H2,22,23,24,29)

> <Ligand InChI Key>
WXDNPHNYOBOIQM-UHFFFAOYSA-N

> <BindingDB MonomerID>
50447299

> <BindingDB Ligand Name>
CHEMBL3114208

> <Target Name Assigned by Curator or DataSource>
DNA gyrase subunit B

> <Target Source Organism According to Curator or DataSource>


> <Ki (nM)>


> <IC50 (nM)>
 2.5

> <Kd (nM)>


> <EC50 (nM)>


> <kon (M-1-s-1)>


> <koff (s-1)>


> <pH>


> <Temp C>


> <Curation/DataSource>
ChEMBL

> <Article DOI>
10.1016/j.bmcl.2013.12.080

> <PMID>
24405701

> <PubChem AID>


> <Patent Number>


> <Authors>
Kale, RR; Kale, MG; Waterson, D; Raichurkar, A; Hameed, SP; Manjunatha, MR; Kishore Reddy, BK; Malolanarasimhan, K; Shinde, V; Koushik, K; Jena, LK; Menasinakai, S; Humnabadkar, V; Madhavapeddi, P; Basavarajappa, H; Sharma, S; Nandishaiah, R; Mahesh Kumar, KN; Ganguly, S; Ahuja, V; Gaonkar, S; Naveen Kumar, CN; Ogg, D; Boriack-Sjodin, PA; Sambandamurthy, VK; de Sousa, SM; Ghorpade, SR

> <Institution>
AstraZeneca

> <Link to Ligand in BindingDB>
http://www.bindingdb.org/bind/chemsearch/marvin/MolStructure.jsp?monomerid=50447299

> <Link to Ligand-Target Pair in BindingDB>
http://www.bindingdb.org/jsp/dbsearch/PrimarySearch_ki.jsp?energyterm=kJ/mole&tag=pol&polymerid=50006452&target=DNA+gyrase+subunit+B&column=ki&startPg=0&Increment=50&submit=Search

> <Link to Ligand-Target Pair in BindingDB>
http://www.bindingdb.org/jsp/dbsearch/PrimarySearch_ki.jsp?energyterm=kJ/mole&tag=r21&monomerid=50447299&enzyme=DNA+gyrase+subunit+B&column=ki&startPg=0&Increment=50&submit=Search

> <Ligand HET ID in PDB>


> <PDB ID(s) for Ligand-Target Complex>


> <PubChem CID>
76328608

> <PubChem SID>
194945195

> <ChEBI ID of Ligand>


> <ChEMBL ID of Ligand>
CHEMBL3114208

> <DrugBank ID of Ligand>


> <IUPHAR_GRAC ID of Ligand>


> <KEGG ID of Ligand>


> <ZINC ID of Ligand>


> <Number of Protein Chains in Target (>1 implies a multichain complex)>
1

> <BindingDB Target Chain Sequence>
MAAQKNNAPKEYGADSITILEGLEAVRKRPGMYIGSTGERGLHHLIWEVVDNAVDEAMAGFATRVDVKIHADGSVEVRDDGRGIPVEMHATGMPTIDVVMTQLHAGGKFDGETYAVSGGLHGVGVSVVNALSTRLEATVLRDGYEWFQYYDRSVPGKLKQGGETKETGTTIRFWADPEIFETTDYNFETVARRLQEMAFLNKGLTIELTDERVTAEEVVDDVVKDTAEAPKTADEKAAEATGPSKVKHRVFHYPGGLVDYVKHINRTKTPIQQSIIDFDGKGPGHEVEIAMQWNAGYSESVHTFANTINTHEGGTHEEGFRAALTSVVNRYAKDKKLLKDKDPNLTGDDIREGLAAVISVKVAEPQFEGQTKTKLGNTEVKSFVQKICNEQLQHWFEANPAEAKTVVNKAVSSAQARIAARKARELVRRKSATDIGGLPGKLADCRSTDPSKSELYVVEGDSAGGSAKSGRDSMFQAILPLRGKIINVEKARIDRVLKNTEVQSIITALGTGIHDEFDISKLRYHKIVLMADADVDGQHISTLLLTLLFRFMKPLVENGHIFLAQPPLYKLKWQRSEPEFAYSDRERDGLLEAGRAAGKKINVDDGIQRYKGLGEMDAKELWETTMDPSVRVLRQVTLDDAAAADELFSILMGEDVEARRSFITRNAKDVRFLDV

> <PDB ID(s) of Target Chain>
4BAE

> <UniProt (SwissProt) Recommended Name of Target Chain>
DNA gyrase subunit B

> <UniProt (SwissProt) Entry Name of Target Chain>
GYRB_MYCSM

> <UniProt (SwissProt) Primary ID of Target Chain>
P0C559

> <UniProt (SwissProt) Secondary ID(s) of Target Chain>
P48355,Q59555

> <UniProt (SwissProt) Alternative ID(s) of Target Chain>


> <UniProt (TrEMBL) Submitted Name of Target Chain>


> <UniProt (TrEMBL) Entry Name of Target Chain>


> <UniProt (TrEMBL) Primary ID of Target Chain>


> <UniProt (TrEMBL) Secondary ID(s) of Target Chain>


> <UniProt (TrEMBL) Alternative ID(s) of Target Chain>


$$$$

  SciTegic09291413392D

 32 35  0  0  0  0            999 V2000
   -0.3081  -29.1299    0.0000 C   0  0
   -0.3070  -29.9495    0.0000 C   0  0
    0.4042  -30.3584    0.0000 N   0  0
    0.4024  -28.7211    0.0000 C   0  0
    1.1110  -29.1263    0.0000 C   0  0
    1.1159  -29.9495    0.0000 C   0  0
    1.9002  -30.1993    0.0000 S   0  0
    2.3802  -29.5305    0.0000 C   0  0
    1.8924  -28.8674    0.0000 N   0  0
    3.1974  -29.5257    0.0000 N   0  0
    3.6018  -28.8156    0.0000 C   0  0
    4.4190  -28.8107    0.0000 N   0  0
    3.1891  -28.1103    0.0000 O   0  0
    4.8234  -28.1006    0.0000 C   0  0
    5.6406  -28.0958    0.0000 C   0  0
   -1.0187  -30.3575    0.0000 O   0  0
   -1.0139  -28.7217    0.0000 C   0  0
   -1.0150  -27.9034    0.0000 C   0  0
   -1.7196  -27.4950    0.0000 C   0  0
   -2.4308  -27.9039    0.0000 N   0  0
   -2.4253  -28.7253    0.0000 C   0  0
   -1.7131  -29.1299    0.0000 C   0  0
   -1.7198  -26.6779    0.0000 O   0  0
   -3.1339  -27.4964    0.0000 C   0  0
   -3.8384  -27.9061    0.0000 C   0  0
   -4.5498  -27.4986    0.0000 O   0  0
   -5.2542  -27.9083    0.0000 C   0  0
   -1.0181  -31.1747    0.0000 C   0  0  2  0  0  0
   -1.6772  -31.6569    0.0000 C   0  0
   -1.4256  -32.4343    0.0000 C   0  0
   -0.6085  -32.4350    0.0000 O   0  0
   -0.3580  -31.6580    0.0000 C   0  0
  1  2  2  0
  2  3  1  0
  3  6  2  0
  5  4  2  0
  4  1  1  0
  5  6  1  0
  6  7  1  0
  7  8  1  0
  8  9  2  0
  9  5  1  0
  8 10  1  0
 10 11  1  0
 11 12  1  0
 11 13  2  0
 12 14  1  0
 14 15  1  0
  2 16  1  0
 17 18  2  0
 18 19  1  0
 19 20  1  0
 20 21  1  0
 21 22  2  0
 22 17  1  0
  1 17  1  0
 19 23  2  0
 20 24  1  0
 24 25  1  0
 25 26  1  0
 26 27  1  0
 28 16  1  1
 28 29  1  0
 29 30  1  0
 30 31  1  0
 31 32  1  0
 32 28  1  0
M  END
> <From> 
www.bindingDB.org

> <BindingDB Reactant_set_id>
50089957

> <Ligand InChI>
InChI=1S/C21H25N5O5S/c1-3-22-20(28)25-21-23-16-11-15(13-4-6-26(7-9-29-2)17(27)10-13)18(24-19(16)32-21)31-14-5-8-30-12-14/h4,6,10-11,14H,3,5,7-9,12H2,1-2H3,(H2,22,23,25,28)/t14-/m1/s1

> <Ligand InChI Key>
YESDQBAVYVXJQW-CQSZACIVSA-N

> <BindingDB MonomerID>
50010377

> <BindingDB Ligand Name>
CHEMBL3263619

> <Target Name Assigned by Curator or DataSource>
DNA gyrase subunit B

> <Target Source Organism According to Curator or DataSource>


> <Ki (nM)>


> <IC50 (nM)>
 2.5

> <Kd (nM)>


> <EC50 (nM)>


> <kon (M-1-s-1)>


> <koff (s-1)>


> <pH>


> <Temp C>


> <Curation/DataSource>
ChEMBL

> <Article DOI>
10.1021/jm401268f

> <PMID>
24088190

> <PubChem AID>


> <Patent Number>


> <Authors>
Ahuja, V; Ahuja, V; Basavarajappa, H; Basavarajappa, H; P, SH; P, SH; Boriack-Sjodin, PA; Boriack-Sjodin, PA; McKinney, D; McKinney, D; Ganguly, S; Ganguly, S; Kranthi, U; Kranthi, U; Gaonkar, S; Gaonkar, S; Jena, Lk; Jena, Lk; Ghorpade, SR; Ghorpade, SR; Ghosh, A; Ghosh, A; Barde, S; Barde, S; Kale, MG; Kale, MG; Koushik, K; Koushik, K; Kumar, CN; Kumar, CN; Manjunatha, MR; Manjunatha, MR; Ogg, D; Ogg, D; Panduga, V; Panduga, V; Ramya, VK; Ramya, VK; Reddy, J; Reddy, J; Kumar, KN; Kumar, KN; Giridhar, J; Giridhar, J; Rudrapatna, S; Rudrapatna, S; Sharma, S; Sharma, S; Tucker, JA; Tucker, JA; Vachaspati, P; Vachaspati, P; Waterson, D; Waterson, D; de Sousa, SM; de Sousa, SM

> <Institution>
AstraZeneca India Pvt. Ltd.

> <Link to Ligand in BindingDB>
http://www.bindingdb.org/bind/chemsearch/marvin/MolStructure.jsp?monomerid=50010377

> <Link to Ligand-Target Pair in BindingDB>
http://www.bindingdb.org/jsp/dbsearch/PrimarySearch_ki.jsp?energyterm=kJ/mole&tag=pol&polymerid=50006452&target=DNA+gyrase+subunit+B&column=ki&startPg=0&Increment=50&submit=Search

> <Link to Ligand-Target Pair in BindingDB>
http://www.bindingdb.org/jsp/dbsearch/PrimarySearch_ki.jsp?energyterm=kJ/mole&tag=r21&monomerid=50010377&enzyme=DNA+gyrase+subunit+B&column=ki&startPg=0&Increment=50&submit=Search

> <Ligand HET ID in PDB>


> <PDB ID(s) for Ligand-Target Complex>


> <PubChem CID>
72713519

> <PubChem SID>
103923191

> <ChEBI ID of Ligand>


> <ChEMBL ID of Ligand>
CHEMBL3263619

> <DrugBank ID of Ligand>


> <IUPHAR_GRAC ID of Ligand>


> <KEGG ID of Ligand>


> <ZINC ID of Ligand>
ZINC13446753

> <Number of Protein Chains in Target (>1 implies a multichain complex)>
1

> <BindingDB Target Chain Sequence>
MAAQKNNAPKEYGADSITILEGLEAVRKRPGMYIGSTGERGLHHLIWEVVDNAVDEAMAGFATRVDVKIHADGSVEVRDDGRGIPVEMHATGMPTIDVVMTQLHAGGKFDGETYAVSGGLHGVGVSVVNALSTRLEATVLRDGYEWFQYYDRSVPGKLKQGGETKETGTTIRFWADPEIFETTDYNFETVARRLQEMAFLNKGLTIELTDERVTAEEVVDDVVKDTAEAPKTADEKAAEATGPSKVKHRVFHYPGGLVDYVKHINRTKTPIQQSIIDFDGKGPGHEVEIAMQWNAGYSESVHTFANTINTHEGGTHEEGFRAALTSVVNRYAKDKKLLKDKDPNLTGDDIREGLAAVISVKVAEPQFEGQTKTKLGNTEVKSFVQKICNEQLQHWFEANPAEAKTVVNKAVSSAQARIAARKARELVRRKSATDIGGLPGKLADCRSTDPSKSELYVVEGDSAGGSAKSGRDSMFQAILPLRGKIINVEKARIDRVLKNTEVQSIITALGTGIHDEFDISKLRYHKIVLMADADVDGQHISTLLLTLLFRFMKPLVENGHIFLAQPPLYKLKWQRSEPEFAYSDRERDGLLEAGRAAGKKINVDDGIQRYKGLGEMDAKELWETTMDPSVRVLRQVTLDDAAAADELFSILMGEDVEARRSFITRNAKDVRFLDV

> <PDB ID(s) of Target Chain>
4BAE

> <UniProt (SwissProt) Recommended Name of Target Chain>
DNA gyrase subunit B

> <UniProt (SwissProt) Entry Name of Target Chain>
GYRB_MYCSM

> <UniProt (SwissProt) Primary ID of Target Chain>
P0C559

> <UniProt (SwissProt) Secondary ID(s) of Target Chain>
P48355,Q59555

> <UniProt (SwissProt) Alternative ID(s) of Target Chain>


> <UniProt (TrEMBL) Submitted Name of Target Chain>


> <UniProt (TrEMBL) Entry Name of Target Chain>


> <UniProt (TrEMBL) Primary ID of Target Chain>


> <UniProt (TrEMBL) Secondary ID(s) of Target Chain>


> <UniProt (TrEMBL) Alternative ID(s) of Target Chain>


$$$$

  SciTegic09291413392D

 34 37  0  0  0  0            999 V2000
   16.0537  -32.9157    0.0000 C   0  0
   18.1980  -31.6741    0.0000 C   0  0
   18.1969  -32.5014    0.0000 C   0  0
   18.9117  -32.9143    0.0000 N   0  0
   18.9099  -31.2613    0.0000 C   0  0
   19.6252  -31.6705    0.0000 C   0  0
   19.6302  -32.5014    0.0000 C   0  0
   20.4220  -32.7536    0.0000 S   0  0
   20.9066  -32.0784    0.0000 C   0  0
   20.4141  -31.4091    0.0000 N   0  0
   21.7315  -32.0736    0.0000 N   0  0
   22.1397  -31.3567    0.0000 C   0  0
   22.9647  -31.3518    0.0000 N   0  0
   21.7231  -30.6447    0.0000 O   0  0
   23.3730  -30.6349    0.0000 C   0  0
   24.1980  -30.6301    0.0000 C   0  0
   17.4821  -32.9133    0.0000 O   0  0
   16.7680  -32.5003    0.0000 C   0  0
   14.7467  -33.1980    0.0000 C   0  0
   15.1622  -33.9124    0.0000 O   0  0
   15.9699  -33.7379    0.0000 C   0  0
   15.3476  -32.5039    0.0000 C   0  0
   17.4856  -31.2619    0.0000 C   0  0
   17.4867  -30.4358    0.0000 C   0  0
   16.7731  -30.0236    0.0000 C   0  0
   16.0577  -30.4363    0.0000 N   0  0
   16.0606  -31.2656    0.0000 C   0  0
   16.7748  -31.6740    0.0000 C   0  0
   16.7732  -29.1987    0.0000 O   0  0
   15.3426  -30.0250    0.0000 C   0  0
   15.3413  -29.2000    0.0000 C   0  0
   14.6262  -28.7886    0.0000 N   0  0
   14.6249  -27.9636    0.0000 C   0  0
   13.9124  -29.2022    0.0000 C   0  0
  2  3  2  0
  3  4  1  0
  4  7  2  0
  6  5  2  0
  5  2  1  0
  6  7  1  0
  7  8  1  0
  8  9  1  0
  9 10  2  0
 10  6  1  0
  9 11  1  0
 11 12  1  0
 12 13  1  0
 12 14  2  0
 13 15  1  0
 15 16  1  0
  3 17  1  0
 17 18  1  0
 18  1  1  0
  1 22  1  0
 22 19  1  0
 19 20  1  0
 20 21  1  0
 21  1  1  0
 23 24  2  0
 24 25  1  0
 25 26  1  0
 26 27  1  0
 27 28  2  0
 28 23  1  0
  2 23  1  0
 25 29  2  0
 26 30  1  0
 30 31  1  0
 31 32  1  0
 32 33  1  0
 32 34  1  0
M  END
> <From> 
www.bindingDB.org

> <BindingDB Reactant_set_id>
50089887

> <Ligand InChI>
InChI=1S/C23H30N6O4S/c1-4-24-22(31)27-23-25-18-12-17(16-5-7-29(19(30)11-16)9-8-28(2)3)20(26-21(18)34-23)33-14-15-6-10-32-13-15/h5,7,11-12,15H,4,6,8-10,13-14H2,1-3H3,(H2,24,25,27,31)

> <Ligand InChI Key>
YPGJWNXHPOQFMA-UHFFFAOYSA-N

> <BindingDB MonomerID>
50010339

> <BindingDB Ligand Name>
CHEMBL3263620

> <Target Name Assigned by Curator or DataSource>
DNA gyrase subunit B

> <Target Source Organism According to Curator or DataSource>


> <Ki (nM)>


> <IC50 (nM)>
 3.0

> <Kd (nM)>


> <EC50 (nM)>


> <kon (M-1-s-1)>


> <koff (s-1)>


> <pH>


> <Temp C>


> <Curation/DataSource>
ChEMBL

> <Article DOI>
10.1021/jm401268f

> <PMID>
24088190

> <PubChem AID>


> <Patent Number>


> <Authors>
Ahuja, V; Ahuja, V; Basavarajappa, H; Basavarajappa, H; P, SH; P, SH; Boriack-Sjodin, PA; Boriack-Sjodin, PA; McKinney, D; McKinney, D; Ganguly, S; Ganguly, S; Kranthi, U; Kranthi, U; Gaonkar, S; Gaonkar, S; Jena, Lk; Jena, Lk; Ghorpade, SR; Ghorpade, SR; Ghosh, A; Ghosh, A; Barde, S; Barde, S; Kale, MG; Kale, MG; Koushik, K; Koushik, K; Kumar, CN; Kumar, CN; Manjunatha, MR; Manjunatha, MR; Ogg, D; Ogg, D; Panduga, V; Panduga, V; Ramya, VK; Ramya, VK; Reddy, J; Reddy, J; Kumar, KN; Kumar, KN; Giridhar, J; Giridhar, J; Rudrapatna, S; Rudrapatna, S; Sharma, S; Sharma, S; Tucker, JA; Tucker, JA; Vachaspati, P; Vachaspati, P; Waterson, D; Waterson, D; de Sousa, SM; de Sousa, SM

> <Institution>
AstraZeneca India Pvt. Ltd.

> <Link to Ligand in BindingDB>
http://www.bindingdb.org/bind/chemsearch/marvin/MolStructure.jsp?monomerid=50010339

> <Link to Ligand-Target Pair in BindingDB>
http://www.bindingdb.org/jsp/dbsearch/PrimarySearch_ki.jsp?energyterm=kJ/mole&tag=pol&polymerid=50006452&target=DNA+gyrase+subunit+B&column=ki&startPg=0&Increment=50&submit=Search

> <Link to Ligand-Target Pair in BindingDB>
http://www.bindingdb.org/jsp/dbsearch/PrimarySearch_ki.jsp?energyterm=kJ/mole&tag=r21&monomerid=50010339&enzyme=DNA+gyrase+subunit+B&column=ki&startPg=0&Increment=50&submit=Search

> <Ligand HET ID in PDB>


> <PDB ID(s) for Ligand-Target Complex>


> <PubChem CID>
72713521

> <PubChem SID>
103923153

> <ChEBI ID of Ligand>


> <ChEMBL ID of Ligand>
CHEMBL3263620

> <DrugBank ID of Ligand>


> <IUPHAR_GRAC ID of Ligand>


> <KEGG ID of Ligand>


> <ZINC ID of Ligand>
ZINC13446610

> <Number of Protein Chains in Target (>1 implies a multichain complex)>
1

> <BindingDB Target Chain Sequence>
MAAQKNNAPKEYGADSITILEGLEAVRKRPGMYIGSTGERGLHHLIWEVVDNAVDEAMAGFATRVDVKIHADGSVEVRDDGRGIPVEMHATGMPTIDVVMTQLHAGGKFDGETYAVSGGLHGVGVSVVNALSTRLEATVLRDGYEWFQYYDRSVPGKLKQGGETKETGTTIRFWADPEIFETTDYNFETVARRLQEMAFLNKGLTIELTDERVTAEEVVDDVVKDTAEAPKTADEKAAEATGPSKVKHRVFHYPGGLVDYVKHINRTKTPIQQSIIDFDGKGPGHEVEIAMQWNAGYSESVHTFANTINTHEGGTHEEGFRAALTSVVNRYAKDKKLLKDKDPNLTGDDIREGLAAVISVKVAEPQFEGQTKTKLGNTEVKSFVQKICNEQLQHWFEANPAEAKTVVNKAVSSAQARIAARKARELVRRKSATDIGGLPGKLADCRSTDPSKSELYVVEGDSAGGSAKSGRDSMFQAILPLRGKIINVEKARIDRVLKNTEVQSIITALGTGIHDEFDISKLRYHKIVLMADADVDGQHISTLLLTLLFRFMKPLVENGHIFLAQPPLYKLKWQRSEPEFAYSDRERDGLLEAGRAAGKKINVDDGIQRYKGLGEMDAKELWETTMDPSVRVLRQVTLDDAAAADELFSILMGEDVEARRSFITRNAKDVRFLDV

> <PDB ID(s) of Target Chain>
4BAE

> <UniProt (SwissProt) Recommended Name of Target Chain>
DNA gyrase subunit B

> <UniProt (SwissProt) Entry Name of Target Chain>
GYRB_MYCSM

> <UniProt (SwissProt) Primary ID of Target Chain>
P0C559

> <UniProt (SwissProt) Secondary ID(s) of Target Chain>
P48355,Q59555

> <UniProt (SwissProt) Alternative ID(s) of Target Chain>


> <UniProt (TrEMBL) Submitted Name of Target Chain>


> <UniProt (TrEMBL) Entry Name of Target Chain>


> <UniProt (TrEMBL) Primary ID of Target Chain>


> <UniProt (TrEMBL) Secondary ID(s) of Target Chain>


> <UniProt (TrEMBL) Alternative ID(s) of Target Chain>


$$$$

  SciTegic09291413392D

 32 35  0  0  0  0            999 V2000
    8.3562  -28.0486    0.0000 C   0  0
    8.3551  -28.8681    0.0000 C   0  0
    9.0631  -29.2771    0.0000 N   0  0
    9.0613  -27.6397    0.0000 C   0  0
    9.7700  -28.0450    0.0000 C   0  0
    9.7748  -28.8682    0.0000 C   0  0
   10.5592  -29.1180    0.0000 S   0  0
   11.0392  -28.4492    0.0000 C   0  0
   10.5513  -27.7861    0.0000 N   0  0
   11.8563  -28.4443    0.0000 N   0  0
   12.2607  -27.7342    0.0000 C   0  0
   13.0779  -27.7294    0.0000 N   0  0
   11.8480  -27.0289    0.0000 O   0  0
   13.4823  -27.0193    0.0000 C   0  0
   14.2995  -27.0145    0.0000 C   0  0
    7.6470  -29.2762    0.0000 N   0  0
    7.6505  -27.6404    0.0000 C   0  0
    7.6516  -26.8221    0.0000 C   0  0
    6.9447  -26.4137    0.0000 C   0  0
    6.2361  -26.8225    0.0000 N   0  0
    6.2389  -27.6439    0.0000 C   0  0
    6.9464  -28.0486    0.0000 C   0  0
    6.9449  -25.5965    0.0000 O   0  0
    5.5277  -26.4150    0.0000 C   0  0
    4.8206  -26.8247    0.0000 C   0  0
    4.1123  -26.4173    0.0000 O   0  0
    3.4052  -26.8270    0.0000 C   0  0
    7.6464  -30.0934    0.0000 C   0  0  1  0  0  0
    6.9849  -30.5756    0.0000 C   0  0
    7.2368  -31.3530    0.0000 C   0  0
    8.0540  -31.3536    0.0000 O   0  0
    8.3070  -30.5766    0.0000 C   0  0
  1  2  2  0
  2  3  1  0
  3  6  2  0
  5  4  2  0
  4  1  1  0
  5  6  1  0
  6  7  1  0
  7  8  1  0
  8  9  2  0
  9  5  1  0
  8 10  1  0
 10 11  1  0
 11 12  1  0
 11 13  2  0
 12 14  1  0
 14 15  1  0
  2 16  1  0
 17 18  2  0
 18 19  1  0
 19 20  1  0
 20 21  1  0
 21 22  2  0
 22 17  1  0
  1 17  1  0
 19 23  2  0
 20 24  1  0
 24 25  1  0
 25 26  1  0
 26 27  1  0
 28 16  1  6
 28 29  1  0
 29 30  1  0
 30 31  1  0
 31 32  1  0
 32 28  1  0
M  END
> <From> 
www.bindingDB.org

> <BindingDB Reactant_set_id>
50089886

> <Ligand InChI>
InChI=1S/C21H26N6O4S/c1-3-22-20(29)26-21-24-16-11-15(13-4-6-27(7-9-30-2)17(28)10-13)18(25-19(16)32-21)23-14-5-8-31-12-14/h4,6,10-11,14H,3,5,7-9,12H2,1-2H3,(H,23,25)(H2,22,24,26,29)/t14-/m0/s1

> <Ligand InChI Key>
BQWMHHFWBYWCQI-AWEZNQCLSA-N

> <BindingDB MonomerID>
50010338

> <BindingDB Ligand Name>
CHEMBL3259858

> <Target Name Assigned by Curator or DataSource>
DNA gyrase subunit B

> <Target Source Organism According to Curator or DataSource>


> <Ki (nM)>


> <IC50 (nM)>
 3.7

> <Kd (nM)>


> <EC50 (nM)>


> <kon (M-1-s-1)>


> <koff (s-1)>


> <pH>


> <Temp C>


> <Curation/DataSource>
ChEMBL

> <Article DOI>
10.1021/jm401268f

> <PMID>
24088190

> <PubChem AID>


> <Patent Number>


> <Authors>
Ahuja, V; Ahuja, V; Basavarajappa, H; Basavarajappa, H; P, SH; P, SH; Boriack-Sjodin, PA; Boriack-Sjodin, PA; McKinney, D; McKinney, D; Ganguly, S; Ganguly, S; Kranthi, U; Kranthi, U; Gaonkar, S; Gaonkar, S; Jena, Lk; Jena, Lk; Ghorpade, SR; Ghorpade, SR; Ghosh, A; Ghosh, A; Barde, S; Barde, S; Kale, MG; Kale, MG; Koushik, K; Koushik, K; Kumar, CN; Kumar, CN; Manjunatha, MR; Manjunatha, MR; Ogg, D; Ogg, D; Panduga, V; Panduga, V; Ramya, VK; Ramya, VK; Reddy, J; Reddy, J; Kumar, KN; Kumar, KN; Giridhar, J; Giridhar, J; Rudrapatna, S; Rudrapatna, S; Sharma, S; Sharma, S; Tucker, JA; Tucker, JA; Vachaspati, P; Vachaspati, P; Waterson, D; Waterson, D; de Sousa, SM; de Sousa, SM

> <Institution>
AstraZeneca India Pvt. Ltd.

> <Link to Ligand in BindingDB>
http://www.bindingdb.org/bind/chemsearch/marvin/MolStructure.jsp?monomerid=50010338

> <Link to Ligand-Target Pair in BindingDB>
http://www.bindingdb.org/jsp/dbsearch/PrimarySearch_ki.jsp?energyterm=kJ/mole&tag=pol&polymerid=50006452&target=DNA+gyrase+subunit+B&column=ki&startPg=0&Increment=50&submit=Search

> <Link to Ligand-Target Pair in BindingDB>
http://www.bindingdb.org/jsp/dbsearch/PrimarySearch_ki.jsp?energyterm=kJ/mole&tag=r21&monomerid=50010338&enzyme=DNA+gyrase+subunit+B&column=ki&startPg=0&Increment=50&submit=Search

> <Ligand HET ID in PDB>


> <PDB ID(s) for Ligand-Target Complex>


> <PubChem CID>
72713520

> <PubChem SID>
103923152

> <ChEBI ID of Ligand>
61014

> <ChEMBL ID of Ligand>
CHEMBL3259858

> <DrugBank ID of Ligand>


> <IUPHAR_GRAC ID of Ligand>
597

> <KEGG ID of Ligand>


> <ZINC ID of Ligand>
ZINC03783066

> <Number of Protein Chains in Target (>1 implies a multichain complex)>
1

> <BindingDB Target Chain Sequence>
MAAQKNNAPKEYGADSITILEGLEAVRKRPGMYIGSTGERGLHHLIWEVVDNAVDEAMAGFATRVDVKIHADGSVEVRDDGRGIPVEMHATGMPTIDVVMTQLHAGGKFDGETYAVSGGLHGVGVSVVNALSTRLEATVLRDGYEWFQYYDRSVPGKLKQGGETKETGTTIRFWADPEIFETTDYNFETVARRLQEMAFLNKGLTIELTDERVTAEEVVDDVVKDTAEAPKTADEKAAEATGPSKVKHRVFHYPGGLVDYVKHINRTKTPIQQSIIDFDGKGPGHEVEIAMQWNAGYSESVHTFANTINTHEGGTHEEGFRAALTSVVNRYAKDKKLLKDKDPNLTGDDIREGLAAVISVKVAEPQFEGQTKTKLGNTEVKSFVQKICNEQLQHWFEANPAEAKTVVNKAVSSAQARIAARKARELVRRKSATDIGGLPGKLADCRSTDPSKSELYVVEGDSAGGSAKSGRDSMFQAILPLRGKIINVEKARIDRVLKNTEVQSIITALGTGIHDEFDISKLRYHKIVLMADADVDGQHISTLLLTLLFRFMKPLVENGHIFLAQPPLYKLKWQRSEPEFAYSDRERDGLLEAGRAAGKKINVDDGIQRYKGLGEMDAKELWETTMDPSVRVLRQVTLDDAAAADELFSILMGEDVEARRSFITRNAKDVRFLDV

> <PDB ID(s) of Target Chain>
4BAE

> <UniProt (SwissProt) Recommended Name of Target Chain>
DNA gyrase subunit B

> <UniProt (SwissProt) Entry Name of Target Chain>
GYRB_MYCSM

> <UniProt (SwissProt) Primary ID of Target Chain>
P0C559

> <UniProt (SwissProt) Secondary ID(s) of Target Chain>
P48355,Q59555

> <UniProt (SwissProt) Alternative ID(s) of Target Chain>


> <UniProt (TrEMBL) Submitted Name of Target Chain>


> <UniProt (TrEMBL) Entry Name of Target Chain>


> <UniProt (TrEMBL) Primary ID of Target Chain>


> <UniProt (TrEMBL) Secondary ID(s) of Target Chain>


> <UniProt (TrEMBL) Alternative ID(s) of Target Chain>


$$$$

  Mrv0541 11241420052D          

 27 29  0  0  0  0            999 V2000
   12.5484   -9.3332    0.0000 C   0  0  0  0  0  0  0  0  0  0  0  0
   12.5473  -10.1606    0.0000 C   0  0  0  0  0  0  0  0  0  0  0  0
   13.2621  -10.5735    0.0000 N   0  0  0  0  0  0  0  0  0  0  0  0
   13.2603   -8.9204    0.0000 C   0  0  0  0  0  0  0  0  0  0  0  0
   11.8339   -8.9208    0.0000 C   0  0  0  0  0  0  0  0  0  0  0  0
   11.8371   -8.0949    0.0000 C   0  0  0  0  0  0  0  0  0  0  0  0
   11.1234   -7.6827    0.0000 N   0  0  0  0  0  0  0  0  0  0  0  0
   10.4080   -8.0954    0.0000 C   0  0  0  0  0  0  0  0  0  0  0  0
   10.4109   -8.9247    0.0000 C   0  0  0  0  0  0  0  0  0  0  0  0
   11.1252   -9.3331    0.0000 C   0  0  0  0  0  0  0  0  0  0  0  0
   13.9756   -9.3296    0.0000 C   0  0  0  0  0  0  0  0  0  0  0  0
   13.9759  -10.1606    0.0000 C   0  0  0  0  0  0  0  0  0  0  0  0
   14.7664  -10.4172    0.0000 S   0  0  0  0  0  0  0  0  0  0  0  0
   15.2547   -9.7447    0.0000 C   0  0  0  0  0  0  0  0  0  0  0  0
   14.7659   -9.0726    0.0000 N   0  0  0  0  0  0  0  0  0  0  0  0
   16.0797   -9.7444    0.0000 N   0  0  0  0  0  0  0  0  0  0  0  0
   16.4919   -9.0298    0.0000 C   0  0  0  0  0  0  0  0  0  0  0  0
   17.3169   -9.0295    0.0000 O   0  0  0  0  0  0  0  0  0  0  0  0
   16.0792   -8.3155    0.0000 N   0  0  0  0  0  0  0  0  0  0  0  0
   16.4914   -7.6009    0.0000 C   0  0  0  0  0  0  0  0  0  0  0  0
   16.0787   -6.8865    0.0000 C   0  0  0  0  0  0  0  0  0  0  0  0
   11.8325  -10.5725    0.0000 O   0  0  0  0  0  0  0  0  0  0  0  0
   13.2623  -11.3984    0.0000 C   0  0  0  0  0  0  0  0  0  0  0  0
   12.5479  -11.8111    0.0000 C   0  0  0  0  0  0  0  0  0  0  0  0
   13.9769  -11.8107    0.0000 C   0  0  0  0  0  0  0  0  0  0  0  0
    9.7015   -9.3409    0.0000 C   0  0  0  0  0  0  0  0  0  0  0  0
    8.9886   -9.7561    0.0000 N   0  0  0  0  0  0  0  0  0  0  0  0
  1  2  1  0  0  0  0
  2  3  1  0  0  0  0
  3 12  1  0  0  0  0
 11  4  1  0  0  0  0
  4  1  2  0  0  0  0
  1  5  1  0  0  0  0
  5  6  2  0  0  0  0
  6  7  1  0  0  0  0
  7  8  2  0  0  0  0
  8  9  1  0  0  0  0
  9 10  2  0  0  0  0
 10  5  1  0  0  0  0
 11 12  2  0  0  0  0
 12 13  1  0  0  0  0
 13 14  1  0  0  0  0
 14 15  2  0  0  0  0
 15 11  1  0  0  0  0
 14 16  1  0  0  0  0
 16 17  1  0  0  0  0
 17 18  2  0  0  0  0
 17 19  1  0  0  0  0
 19 20  1  0  0  0  0
 20 21  1  0  0  0  0
  2 22  2  0  0  0  0
  3 23  1  0  0  0  0
 23 24  1  0  0  0  0
 23 25  1  0  0  0  0
 26 27  3  0  0  0  0
  9 26  1  0  0  0  0
M  END
> <From> 
www.bindingDB.org

> <BindingDB Reactant_set_id>
51091615

> <Ligand InChI>
InChI=1S/C18H18N6O2S/c1-4-21-17(26)23-18-22-14-6-13(12-5-11(7-19)8-20-9-12)15(25)24(10(2)3)16(14)27-18/h5-6,8-10H,4H2,1-3H3,(H2,21,22,23,26)

> <Ligand InChI Key>
LGFKSIAROJRJDY-UHFFFAOYSA-N

> <BindingDB MonomerID>
50447303

> <BindingDB Ligand Name>
CHEMBL3114202

> <Target Name Assigned by Curator or DataSource>
DNA gyrase subunit B

> <Target Source Organism According to Curator or DataSource>


> <Ki (nM)>


> <IC50 (nM)>
 4.0

> <Kd (nM)>


> <EC50 (nM)>


> <kon (M-1-s-1)>


> <koff (s-1)>


> <pH>


> <Temp C>


> <Curation/DataSource>
ChEMBL

> <Article DOI>
10.1016/j.bmcl.2013.12.080

> <PMID>
24405701

> <PubChem AID>


> <Patent Number>


> <Authors>
Kale, RR; Kale, MG; Waterson, D; Raichurkar, A; Hameed, SP; Manjunatha, MR; Kishore Reddy, BK; Malolanarasimhan, K; Shinde, V; Koushik, K; Jena, LK; Menasinakai, S; Humnabadkar, V; Madhavapeddi, P; Basavarajappa, H; Sharma, S; Nandishaiah, R; Mahesh Kumar, KN; Ganguly, S; Ahuja, V; Gaonkar, S; Naveen Kumar, CN; Ogg, D; Boriack-Sjodin, PA; Sambandamurthy, VK; de Sousa, SM; Ghorpade, SR

> <Institution>
AstraZeneca

> <Link to Ligand in BindingDB>
http://www.bindingdb.org/bind/chemsearch/marvin/MolStructure.jsp?monomerid=50447303

> <Link to Ligand-Target Pair in BindingDB>
http://www.bindingdb.org/jsp/dbsearch/PrimarySearch_ki.jsp?energyterm=kJ/mole&tag=pol&polymerid=50006452&target=DNA+gyrase+subunit+B&column=ki&startPg=0&Increment=50&submit=Search

> <Link to Ligand-Target Pair in BindingDB>
http://www.bindingdb.org/jsp/dbsearch/PrimarySearch_ki.jsp?energyterm=kJ/mole&tag=r21&monomerid=50447303&enzyme=DNA+gyrase+subunit+B&column=ki&startPg=0&Increment=50&submit=Search

> <Ligand HET ID in PDB>


> <PDB ID(s) for Ligand-Target Complex>


> <PubChem CID>
76314160

> <PubChem SID>
194945199

> <ChEBI ID of Ligand>


> <ChEMBL ID of Ligand>
CHEMBL3114202

> <DrugBank ID of Ligand>


> <IUPHAR_GRAC ID of Ligand>


> <KEGG ID of Ligand>


> <ZINC ID of Ligand>


> <Number of Protein Chains in Target (>1 implies a multichain complex)>
1

> <BindingDB Target Chain Sequence>
MAAQKNNAPKEYGADSITILEGLEAVRKRPGMYIGSTGERGLHHLIWEVVDNAVDEAMAGFATRVDVKIHADGSVEVRDDGRGIPVEMHATGMPTIDVVMTQLHAGGKFDGETYAVSGGLHGVGVSVVNALSTRLEATVLRDGYEWFQYYDRSVPGKLKQGGETKETGTTIRFWADPEIFETTDYNFETVARRLQEMAFLNKGLTIELTDERVTAEEVVDDVVKDTAEAPKTADEKAAEATGPSKVKHRVFHYPGGLVDYVKHINRTKTPIQQSIIDFDGKGPGHEVEIAMQWNAGYSESVHTFANTINTHEGGTHEEGFRAALTSVVNRYAKDKKLLKDKDPNLTGDDIREGLAAVISVKVAEPQFEGQTKTKLGNTEVKSFVQKICNEQLQHWFEANPAEAKTVVNKAVSSAQARIAARKARELVRRKSATDIGGLPGKLADCRSTDPSKSELYVVEGDSAGGSAKSGRDSMFQAILPLRGKIINVEKARIDRVLKNTEVQSIITALGTGIHDEFDISKLRYHKIVLMADADVDGQHISTLLLTLLFRFMKPLVENGHIFLAQPPLYKLKWQRSEPEFAYSDRERDGLLEAGRAAGKKINVDDGIQRYKGLGEMDAKELWETTMDPSVRVLRQVTLDDAAAADELFSILMGEDVEARRSFITRNAKDVRFLDV

> <PDB ID(s) of Target Chain>
4BAE

> <UniProt (SwissProt) Recommended Name of Target Chain>
DNA gyrase subunit B

> <UniProt (SwissProt) Entry Name of Target Chain>
GYRB_MYCSM

> <UniProt (SwissProt) Primary ID of Target Chain>
P0C559

> <UniProt (SwissProt) Secondary ID(s) of Target Chain>
P48355,Q59555

> <UniProt (SwissProt) Alternative ID(s) of Target Chain>


> <UniProt (TrEMBL) Submitted Name of Target Chain>


> <UniProt (TrEMBL) Entry Name of Target Chain>


> <UniProt (TrEMBL) Primary ID of Target Chain>


> <UniProt (TrEMBL) Secondary ID(s) of Target Chain>


> <UniProt (TrEMBL) Alternative ID(s) of Target Chain>


$$$$

  Mrv0541 11231422262D          

 26 28  0  0  0  0            999 V2000
    6.6077  -20.7648    0.0000 N   0  0  0  0  0  0  0  0  0  0  0  0
    5.9344  -20.2781    0.0000 C   0  0  0  0  0  0  0  0  0  0  0  0
    6.1910  -19.4898    0.0000 C   0  0  0  0  0  0  0  0  0  0  0  0
    7.0202  -19.4898    0.0000 C   0  0  0  0  0  0  0  0  0  0  0  0
    7.2767  -20.2786    0.0000 C   0  0  0  0  0  0  0  0  0  0  0  0
    5.1500  -20.5337    0.0000 C   0  0  0  0  0  0  0  0  0  0  0  0
    7.9936  -20.6868    0.0000 C   0  0  0  0  0  0  0  0  0  0  0  0
    7.9984  -21.5118    0.0000 O   0  0  0  0  0  0  0  0  0  0  0  0
    8.7055  -20.2703    0.0000 N   0  0  0  0  0  0  0  0  0  0  0  0
    9.4224  -20.6785    0.0000 C   0  0  1  0  0  0  0  0  0  0  0  0
    9.4235  -21.5056    0.0000 C   0  0  2  0  0  0  0  0  0  0  0  0
   10.1362  -21.9137    0.0000 C   0  0  0  0  0  0  0  0  0  0  0  0
   10.8506  -21.5006    0.0000 N   0  0  0  0  0  0  0  0  0  0  0  0
   10.8477  -20.6746    0.0000 C   0  0  0  0  0  0  0  0  0  0  0  0
   10.1305  -20.2620    0.0000 C   0  0  0  0  0  0  0  0  0  0  0  0
   11.5661  -21.9114    0.0000 C   0  0  0  0  0  0  0  0  0  0  0  0
    5.7064  -18.8223    0.0000 Cl  0  0  0  0  0  0  0  0  0  0  0  0
    7.5049  -18.8224    0.0000 Cl  0  0  0  0  0  0  0  0  0  0  0  0
   11.8287  -22.6932    0.0000 S   0  0  0  0  0  0  0  0  0  0  0  0
   12.6536  -22.6861    0.0000 C   0  0  0  0  0  0  0  0  0  0  0  0
   12.9017  -21.8992    0.0000 C   0  0  0  0  0  0  0  0  0  0  0  0
   12.2302  -21.4203    0.0000 N   0  0  0  0  0  0  0  0  0  0  0  0
   13.0628  -23.4023    0.0000 C   0  0  0  0  0  0  0  0  0  0  0  0
   12.6472  -24.1149    0.0000 O   0  0  0  0  0  0  0  0  0  0  0  0
   13.8877  -23.4060    0.0000 O   0  0  0  0  0  0  0  0  0  0  0  0
    8.7101  -21.9197    0.0000 F   0  0  0  0  0  0  0  0  0  0  0  0
  5  7  1  0  0  0  0
 10 15  1  0  0  0  0
 11 12  1  0  0  0  0
 12 13  1  0  0  0  0
 13 14  1  0  0  0  0
 14 15  1  0  0  0  0
  1  2  1  0  0  0  0
 13 16  1  0  0  0  0
  7  8  2  0  0  0  0
  3 17  1  0  0  0  0
  3  4  1  0  0  0  0
  4 18  1  0  0  0  0
 16 19  1  0  0  0  0
  7  9  1  0  0  0  0
  4  5  2  0  0  0  0
 10  9  1  6  0  0  0
 10 11  1  0  0  0  0
 19 20  1  0  0  0  0
 20 21  2  0  0  0  0
 21 22  1  0  0  0  0
 22 16  2  0  0  0  0
  5  1  1  0  0  0  0
 20 23  1  0  0  0  0
  2  3  2  0  0  0  0
 23 24  2  0  0  0  0
  2  6  1  0  0  0  0
 23 25  1  0  0  0  0
 11 26  1  6  0  0  0
M  END
> <From> 
www.bindingDB.org

> <BindingDB Reactant_set_id>
50705132

> <Ligand InChI>
InChI=1S/C15H15Cl2FN4O3S/c1-6-10(16)11(17)12(20-6)13(23)21-8-2-3-22(5-7(8)18)15-19-4-9(26-15)14(24)25/h4,7-8,20H,2-3,5H2,1H3,(H,21,23)(H,24,25)/t7-,8+/m0/s1

> <Ligand InChI Key>
BGDGHNSKANYMHF-JGVFFNPUSA-N

> <BindingDB MonomerID>
50358854

> <BindingDB Ligand Name>
CHEMBL1923440

> <Target Name Assigned by Curator or DataSource>
DNA Gyrase Subunit B

> <Target Source Organism According to Curator or DataSource>
Staphylococcus aureus

> <Ki (nM)>


> <IC50 (nM)>
 4

> <Kd (nM)>


> <EC50 (nM)>


> <kon (M-1-s-1)>


> <koff (s-1)>


> <pH>


> <Temp C>


> <Curation/DataSource>
ChEMBL

> <Article DOI>
10.1016/j.bmcl.2011.10.010

> <PMID>
22041057

> <PubChem AID>


> <Patent Number>


> <Authors>
Sherer, BA; Hull, K; Green, O; Basarab, G; Hauck, S; Hill, P; Loch, JT; Mullen, G; Bist, S; Bryant, J; Boriack-Sjodin, A; Read, J; DeGrace, N; Uria-Nickelsen, M; Illingworth, RN; Eakin, AE

> <Institution>
AstraZeneca R&amp;D Boston

> <Link to Ligand in BindingDB>
http://www.bindingdb.org/bind/chemsearch/marvin/MolStructure.jsp?monomerid=50358854

> <Link to Ligand-Target Pair in BindingDB>
http://www.bindingdb.org/jsp/dbsearch/PrimarySearch_ki.jsp?energyterm=kJ/mole&tag=pol&polymerid=2626&target=DNA+Gyrase+Subunit+B&column=ki&startPg=0&Increment=50&submit=Search

> <Link to Ligand-Target Pair in BindingDB>
http://www.bindingdb.org/jsp/dbsearch/PrimarySearch_ki.jsp?energyterm=kJ/mole&tag=r21&monomerid=50358854&enzyme=DNA+Gyrase+Subunit+B&column=ki&startPg=0&Increment=50&submit=Search

> <Ligand HET ID in PDB>
07N

> <PDB ID(s) for Ligand-Target Complex>
3TTZ

> <PubChem CID>
11718729

> <PubChem SID>
136962878

> <ChEBI ID of Ligand>


> <ChEMBL ID of Ligand>
CHEMBL1923440

> <DrugBank ID of Ligand>


> <IUPHAR_GRAC ID of Ligand>


> <KEGG ID of Ligand>


> <ZINC ID of Ligand>
ZINC34642274

> <Number of Protein Chains in Target (>1 implies a multichain complex)>
1

> <BindingDB Target Chain Sequence>
MVTALSDVNNTDNYGAGQIQVLEGLEAVRKRPGMYIGSTSERGLHHLVWEIVDNSIDEALAGYANQIEVVIEKDNWIKVTDNGRGIPVDIQEKMGRPAVEVILTVLHAGGKFGGGGYKVSGGLHGVGSSVVNALSQDLEVYVHRNETIYHQAYKKGVPQFDLKEVGTTDKTGTVIRFKADGEIFTETTVYNYETLQQRIRELAFLNKGIQITLRDERDEENVREDSYHYEGGIKSYVELLNENKEPIHDEPIYIHQSKDDIEVEIAIQYNSGYATNLLTYANNIHTYEGGTHEDGFKRALTRVLNSYGLSSKIMKEEKDRLSGEDTREGMTAIISIKHGDPQFEGQTKTKLGNSEVRQVVDKLFSEHFERFLYENPQVARTVVEKGIMAARARVAAKKAREVTRRKSALDVASLPGKLADCSSKSPEECEIFLVEGDSAGGSTKSGRDSRTQAILPLRGKILNVEKARLDRILNNNEIRQMITAFGTGIGGDFDLAKARYHKIVIMTDADVDGAHIRTLLLTFFYRFMRPLIEAGYVYIAQPPLYKLTQGKQKYYVYNDRELDKLKSELNPTPKWSIARYKGLGEMNADQLWETTMNPEHRALLQVKLEDAIEADQTFEMLMGDVVENRRQFIEDNAVYANLDF

> <PDB ID(s) of Target Chain>


> <UniProt (SwissProt) Recommended Name of Target Chain>
DNA gyrase subunit B

> <UniProt (SwissProt) Entry Name of Target Chain>
GYRB_STAAU

> <UniProt (SwissProt) Primary ID of Target Chain>
P0A0K8

> <UniProt (SwissProt) Secondary ID(s) of Target Chain>
P20832

> <UniProt (SwissProt) Alternative ID(s) of Target Chain>


> <UniProt (TrEMBL) Submitted Name of Target Chain>


> <UniProt (TrEMBL) Entry Name of Target Chain>


> <UniProt (TrEMBL) Primary ID of Target Chain>


> <UniProt (TrEMBL) Secondary ID(s) of Target Chain>


> <UniProt (TrEMBL) Alternative ID(s) of Target Chain>


$$$$

  SciTegic09291413392D

 37 41  0  0  0  0            999 V2000
   -0.6356  -20.6692    0.0000 C   0  0
    1.4968  -19.4392    0.0000 C   0  0
    1.4956  -20.2587    0.0000 C   0  0
    2.2037  -20.6677    0.0000 N   0  0
    2.2019  -19.0303    0.0000 C   0  0
    2.9105  -19.4356    0.0000 C   0  0
    2.9153  -20.2588    0.0000 C   0  0
    3.6997  -20.5086    0.0000 S   0  0
    4.1797  -19.8398    0.0000 C   0  0
    3.6919  -19.1767    0.0000 N   0  0
    0.7910  -19.0310    0.0000 C   0  0
    0.7922  -18.2127    0.0000 C   0  0
    0.0852  -17.8043    0.0000 N   0  0
   -0.6313  -18.2131    0.0000 C   0  0
   -0.6259  -19.0345    0.0000 C   0  0
    4.9969  -19.8349    0.0000 N   0  0
    5.4013  -19.1248    0.0000 C   0  0
    6.2185  -19.1200    0.0000 N   0  0
    4.9885  -18.4195    0.0000 O   0  0
    6.6229  -18.4099    0.0000 C   0  0
    7.4401  -18.4051    0.0000 C   0  0
    0.0809  -19.4404    0.0000 C   0  0
    0.7876  -20.6668    0.0000 O   0  0
    0.0802  -20.2576    0.0000 C   0  0
   -1.9246  -20.9488    0.0000 C   0  0
   -1.5107  -21.6564    0.0000 O   0  0
   -0.7177  -21.4835    0.0000 C   0  0
   -1.3302  -19.4440    0.0000 O   0  0
   -1.3312  -20.2612    0.0000 C   0  0
   -2.0417  -19.0363    0.0000 C   0  0
   -2.0407  -18.2191    0.0000 C   0  0
   -3.4566  -18.2208    0.0000 C   0  0
   -2.7497  -17.8121    0.0000 N   0  0
   -2.7564  -17.0020    0.0000 C   0  0
   -3.4550  -16.5944    0.0000 C   0  0
   -4.1618  -17.0032    0.0000 O   0  0
   -4.1618  -17.8194    0.0000 C   0  0
  2  3  2  0
  3  4  1  0
  4  7  2  0
  6  5  2  0
  5  2  1  0
  6  7  1  0
  7  8  1  0
  8  9  1  0
  9 10  2  0
 10  6  1  0
 11 12  2  0
 12 13  1  0
 13 14  2  0
 14 15  1  0
 15 22  2  0
 22 11  1  0
  2 11  1  0
  9 16  1  0
 16 17  1  0
 17 18  1  0
 17 19  2  0
 18 20  1  0
 20 21  1  0
  3 23  1  0
 23 24  1  0
 24  1  1  0
  1 29  1  0
 29 25  1  0
 25 26  1  0
 26 27  1  0
 27  1  1  0
 15 28  1  0
 28 30  1  0
 30 31  1  0
 31 33  1  0
 32 33  1  0
 32 37  1  0
 33 34  1  0
 34 35  1  0
 35 36  1  0
 36 37  1  0
M  END
> <From> 
www.bindingDB.org

> <BindingDB Reactant_set_id>
50089946

> <Ligand InChI>
InChI=1S/C25H32N6O5S/c1-2-27-24(32)30-25-28-21-12-20(22(29-23(21)37-25)36-16-17-3-7-34-15-17)18-11-19(14-26-13-18)35-10-6-31-4-8-33-9-5-31/h11-14,17H,2-10,15-16H2,1H3,(H2,27,28,30,32)

> <Ligand InChI Key>
AZVOQBVEWXMNPO-UHFFFAOYSA-N

> <BindingDB MonomerID>
50010371

> <BindingDB Ligand Name>
CHEMBL3263613

> <Target Name Assigned by Curator or DataSource>
DNA gyrase subunit B

> <Target Source Organism According to Curator or DataSource>


> <Ki (nM)>


> <IC50 (nM)>
 4.0

> <Kd (nM)>


> <EC50 (nM)>


> <kon (M-1-s-1)>


> <koff (s-1)>


> <pH>


> <Temp C>


> <Curation/DataSource>
ChEMBL

> <Article DOI>
10.1021/jm401268f

> <PMID>
24088190

> <PubChem AID>


> <Patent Number>


> <Authors>
Ahuja, V; Ahuja, V; Basavarajappa, H; Basavarajappa, H; P, SH; P, SH; Boriack-Sjodin, PA; Boriack-Sjodin, PA; McKinney, D; McKinney, D; Ganguly, S; Ganguly, S; Kranthi, U; Kranthi, U; Gaonkar, S; Gaonkar, S; Jena, Lk; Jena, Lk; Ghorpade, SR; Ghorpade, SR; Ghosh, A; Ghosh, A; Barde, S; Barde, S; Kale, MG; Kale, MG; Koushik, K; Koushik, K; Kumar, CN; Kumar, CN; Manjunatha, MR; Manjunatha, MR; Ogg, D; Ogg, D; Panduga, V; Panduga, V; Ramya, VK; Ramya, VK; Reddy, J; Reddy, J; Kumar, KN; Kumar, KN; Giridhar, J; Giridhar, J; Rudrapatna, S; Rudrapatna, S; Sharma, S; Sharma, S; Tucker, JA; Tucker, JA; Vachaspati, P; Vachaspati, P; Waterson, D; Waterson, D; de Sousa, SM; de Sousa, SM

> <Institution>
AstraZeneca India Pvt. Ltd.

> <Link to Ligand in BindingDB>
http://www.bindingdb.org/bind/chemsearch/marvin/MolStructure.jsp?monomerid=50010371

> <Link to Ligand-Target Pair in BindingDB>
http://www.bindingdb.org/jsp/dbsearch/PrimarySearch_ki.jsp?energyterm=kJ/mole&tag=pol&polymerid=50006452&target=DNA+gyrase+subunit+B&column=ki&startPg=0&Increment=50&submit=Search

> <Link to Ligand-Target Pair in BindingDB>
http://www.bindingdb.org/jsp/dbsearch/PrimarySearch_ki.jsp?energyterm=kJ/mole&tag=r21&monomerid=50010371&enzyme=DNA+gyrase+subunit+B&column=ki&startPg=0&Increment=50&submit=Search

> <Ligand HET ID in PDB>


> <PDB ID(s) for Ligand-Target Complex>


> <PubChem CID>
72713310

> <PubChem SID>
103923185

> <ChEBI ID of Ligand>


> <ChEMBL ID of Ligand>
CHEMBL3263613

> <DrugBank ID of Ligand>


> <IUPHAR_GRAC ID of Ligand>


> <KEGG ID of Ligand>


> <ZINC ID of Ligand>
ZINC13446911

> <Number of Protein Chains in Target (>1 implies a multichain complex)>
1

> <BindingDB Target Chain Sequence>
MAAQKNNAPKEYGADSITILEGLEAVRKRPGMYIGSTGERGLHHLIWEVVDNAVDEAMAGFATRVDVKIHADGSVEVRDDGRGIPVEMHATGMPTIDVVMTQLHAGGKFDGETYAVSGGLHGVGVSVVNALSTRLEATVLRDGYEWFQYYDRSVPGKLKQGGETKETGTTIRFWADPEIFETTDYNFETVARRLQEMAFLNKGLTIELTDERVTAEEVVDDVVKDTAEAPKTADEKAAEATGPSKVKHRVFHYPGGLVDYVKHINRTKTPIQQSIIDFDGKGPGHEVEIAMQWNAGYSESVHTFANTINTHEGGTHEEGFRAALTSVVNRYAKDKKLLKDKDPNLTGDDIREGLAAVISVKVAEPQFEGQTKTKLGNTEVKSFVQKICNEQLQHWFEANPAEAKTVVNKAVSSAQARIAARKARELVRRKSATDIGGLPGKLADCRSTDPSKSELYVVEGDSAGGSAKSGRDSMFQAILPLRGKIINVEKARIDRVLKNTEVQSIITALGTGIHDEFDISKLRYHKIVLMADADVDGQHISTLLLTLLFRFMKPLVENGHIFLAQPPLYKLKWQRSEPEFAYSDRERDGLLEAGRAAGKKINVDDGIQRYKGLGEMDAKELWETTMDPSVRVLRQVTLDDAAAADELFSILMGEDVEARRSFITRNAKDVRFLDV

> <PDB ID(s) of Target Chain>
4BAE

> <UniProt (SwissProt) Recommended Name of Target Chain>
DNA gyrase subunit B

> <UniProt (SwissProt) Entry Name of Target Chain>
GYRB_MYCSM

> <UniProt (SwissProt) Primary ID of Target Chain>
P0C559

> <UniProt (SwissProt) Secondary ID(s) of Target Chain>
P48355,Q59555

> <UniProt (SwissProt) Alternative ID(s) of Target Chain>


> <UniProt (TrEMBL) Submitted Name of Target Chain>


> <UniProt (TrEMBL) Entry Name of Target Chain>


> <UniProt (TrEMBL) Primary ID of Target Chain>


> <UniProt (TrEMBL) Secondary ID(s) of Target Chain>


> <UniProt (TrEMBL) Alternative ID(s) of Target Chain>


$$$$

  Mrv0541 11241412072D          

 37 41  0  0  0  0            999 V2000
    8.7122  -17.8985    0.0000 C   0  0  0  0  0  0  0  0  0  0  0  0
    9.4287  -17.4852    0.0000 C   0  0  0  0  0  0  0  0  0  0  0  0
    9.4258  -16.6547    0.0000 C   0  0  0  0  0  0  0  0  0  0  0  0
    8.7104  -16.2455    0.0000 N   0  0  0  0  0  0  0  0  0  0  0  0
    7.9974  -17.4857    0.0000 C   0  0  0  0  0  0  0  0  0  0  0  0
    7.9987  -16.6567    0.0000 C   0  0  0  0  0  0  0  0  0  0  0  0
    7.2107  -16.3994    0.0000 N   0  0  0  0  0  0  0  0  0  0  0  0
    6.7224  -17.0693    0.0000 C   0  0  0  0  0  0  0  0  0  0  0  0
    7.2087  -17.7406    0.0000 C   0  0  0  0  0  0  0  0  0  0  0  0
   10.1402  -17.8958    0.0000 C   0  0  0  0  0  0  0  0  0  0  0  0
   10.1402  -18.7219    0.0000 C   0  0  0  0  0  0  0  0  0  0  0  0
   10.8545  -19.1332    0.0000 N   0  0  0  0  0  0  0  0  0  0  0  0
   11.5693  -18.7195    0.0000 C   0  0  0  0  0  0  0  0  0  0  0  0
   11.5653  -17.8903    0.0000 C   0  0  0  0  0  0  0  0  0  0  0  0
   10.8505  -17.4827    0.0000 C   0  0  0  0  0  0  0  0  0  0  0  0
    8.7144  -18.7198    0.0000 N   0  0  0  0  0  0  0  0  0  0  0  0
    8.0468  -19.2046    0.0000 C   0  0  0  0  0  0  0  0  0  0  0  0
    8.3016  -19.9893    0.0000 C   0  0  0  0  0  0  0  0  0  0  0  0
    9.1266  -19.9895    0.0000 C   0  0  0  0  0  0  0  0  0  0  0  0
    9.3816  -19.2049    0.0000 N   0  0  0  0  0  0  0  0  0  0  0  0
    9.6115  -20.6570    0.0000 C   0  0  0  0  0  0  0  0  0  0  0  0
    9.2758  -21.4106    0.0000 F   0  0  0  0  0  0  0  0  0  0  0  0
   10.4320  -20.5709    0.0000 F   0  0  0  0  0  0  0  0  0  0  0  0
   10.0167  -21.3667    0.0000 F   0  0  0  0  0  0  0  0  0  0  0  0
    5.8974  -17.0681    0.0000 C   0  0  0  0  0  0  0  0  0  0  0  0
    5.4859  -16.3530    0.0000 N   0  0  0  0  0  0  0  0  0  0  0  0
    5.4839  -17.7820    0.0000 O   0  0  0  0  0  0  0  0  0  0  0  0
    4.6609  -16.3518    0.0000 C   0  0  0  0  0  0  0  0  0  0  0  0
    4.2495  -15.6368    0.0000 C   0  0  0  0  0  0  0  0  0  0  0  0
   12.2764  -17.4696    0.0000 C   0  0  0  0  0  0  0  0  0  0  0  0
   13.0318  -17.8013    0.0000 N   0  0  0  0  0  0  0  0  0  0  0  0
   13.5807  -17.1854    0.0000 N   0  0  0  0  0  0  0  0  0  0  0  0
   13.1645  -16.4730    0.0000 C   0  0  0  0  0  0  0  0  0  0  0  0
   12.3585  -16.6488    0.0000 O   0  0  0  0  0  0  0  0  0  0  0  0
   13.4962  -15.7176    0.0000 O   0  0  0  0  0  0  0  0  0  0  0  0
   12.2849  -19.1300    0.0000 O   0  0  0  0  0  0  0  0  0  0  0  0
   12.2873  -19.9550    0.0000 C   0  0  0  0  0  0  0  0  0  0  0  0
  8  9  2  0  0  0  0
  9  5  1  0  0  0  0
 17 18  2  0  0  0  0
 18 19  1  0  0  0  0
 19 20  2  0  0  0  0
 20 16  1  0  0  0  0
  1 16  1  0  0  0  0
  4  6  2  0  0  0  0
 19 21  1  0  0  0  0
  5  6  1  0  0  0  0
 21 22  1  0  0  0  0
 10 11  2  0  0  0  0
 21 23  1  0  0  0  0
  1  2  1  0  0  0  0
 21 24  1  0  0  0  0
 11 12  1  0  0  0  0
  8 25  1  0  0  0  0
  5  1  2  0  0  0  0
 25 26  1  0  0  0  0
 12 13  2  0  0  0  0
 25 27  2  0  0  0  0
  2  3  2  0  0  0  0
 26 28  1  0  0  0  0
 13 14  1  0  0  0  0
 28 29  1  0  0  0  0
 30 31  2  0  0  0  0
 14 15  2  0  0  0  0
 15 10  1  0  0  0  0
  2 10  1  0  0  0  0
 16 17  1  0  0  0  0
 31 32  1  0  0  0  0
 32 33  1  0  0  0  0
 33 34  1  0  0  0  0
 34 30  1  0  0  0  0
 14 30  1  0  0  0  0
  3  4  1  0  0  0  0
 33 35  2  0  0  0  0
  6  7  1  0  0  0  0
 13 36  1  0  0  0  0
  7  8  1  0  0  0  0
 36 37  1  0  0  0  0
M  END
> <From> 
www.bindingDB.org

> <BindingDB Reactant_set_id>
50945997

> <Ligand InChI>
InChI=1S/C22H17F3N8O4/c1-3-26-18(34)14-7-11-16(33-5-4-15(32-33)22(23,24)25)13(9-27-17(11)29-14)10-6-12(19(36-2)28-8-10)20-30-31-21(35)37-20/h4-9H,3H2,1-2H3,(H,26,34)(H,27,29)(H,31,35)

> <Ligand InChI Key>
OWLVIJCXPBKECA-UHFFFAOYSA-N

> <BindingDB MonomerID>
50388100

> <BindingDB Ligand Name>
CHEMBL2059379

> <Target Name Assigned by Curator or DataSource>
DNA Gyrase Subunit B

> <Target Source Organism According to Curator or DataSource>
Staphylococcus aureus

> <Ki (nM)>


> <IC50 (nM)>
 4

> <Kd (nM)>


> <EC50 (nM)>


> <kon (M-1-s-1)>


> <koff (s-1)>


> <pH>


> <Temp C>


> <Curation/DataSource>
ChEMBL

> <Article DOI>
10.1016/j.bmcl.2012.05.128

> <PMID>
22814212

> <PubChem AID>


> <Patent Number>


> <Authors>
Manchester, JI; Dussault, DD; Rose, JA; Boriack-Sjodin, PA; Uria-Nickelsen, M; Ioannidis, G; Bist, S; Fleming, P; Hull, KG

> <Institution>
AstraZeneca

> <Link to Ligand in BindingDB>
http://www.bindingdb.org/bind/chemsearch/marvin/MolStructure.jsp?monomerid=50388100

> <Link to Ligand-Target Pair in BindingDB>
http://www.bindingdb.org/jsp/dbsearch/PrimarySearch_ki.jsp?energyterm=kJ/mole&tag=pol&polymerid=2626&target=DNA+Gyrase+Subunit+B&column=ki&startPg=0&Increment=50&submit=Search

> <Link to Ligand-Target Pair in BindingDB>
http://www.bindingdb.org/jsp/dbsearch/PrimarySearch_ki.jsp?energyterm=kJ/mole&tag=r21&monomerid=50388100&enzyme=DNA+Gyrase+Subunit+B&column=ki&startPg=0&Increment=50&submit=Search

> <Ligand HET ID in PDB>


> <PDB ID(s) for Ligand-Target Complex>


> <PubChem CID>
62705862

> <PubChem SID>
160867183

> <ChEBI ID of Ligand>


> <ChEMBL ID of Ligand>
CHEMBL2059379

> <DrugBank ID of Ligand>


> <IUPHAR_GRAC ID of Ligand>


> <KEGG ID of Ligand>


> <ZINC ID of Ligand>
ZINC84687921

> <Number of Protein Chains in Target (>1 implies a multichain complex)>
1

> <BindingDB Target Chain Sequence>
MVTALSDVNNTDNYGAGQIQVLEGLEAVRKRPGMYIGSTSERGLHHLVWEIVDNSIDEALAGYANQIEVVIEKDNWIKVTDNGRGIPVDIQEKMGRPAVEVILTVLHAGGKFGGGGYKVSGGLHGVGSSVVNALSQDLEVYVHRNETIYHQAYKKGVPQFDLKEVGTTDKTGTVIRFKADGEIFTETTVYNYETLQQRIRELAFLNKGIQITLRDERDEENVREDSYHYEGGIKSYVELLNENKEPIHDEPIYIHQSKDDIEVEIAIQYNSGYATNLLTYANNIHTYEGGTHEDGFKRALTRVLNSYGLSSKIMKEEKDRLSGEDTREGMTAIISIKHGDPQFEGQTKTKLGNSEVRQVVDKLFSEHFERFLYENPQVARTVVEKGIMAARARVAAKKAREVTRRKSALDVASLPGKLADCSSKSPEECEIFLVEGDSAGGSTKSGRDSRTQAILPLRGKILNVEKARLDRILNNNEIRQMITAFGTGIGGDFDLAKARYHKIVIMTDADVDGAHIRTLLLTFFYRFMRPLIEAGYVYIAQPPLYKLTQGKQKYYVYNDRELDKLKSELNPTPKWSIARYKGLGEMNADQLWETTMNPEHRALLQVKLEDAIEADQTFEMLMGDVVENRRQFIEDNAVYANLDF

> <PDB ID(s) of Target Chain>


> <UniProt (SwissProt) Recommended Name of Target Chain>
DNA gyrase subunit B

> <UniProt (SwissProt) Entry Name of Target Chain>
GYRB_STAAU

> <UniProt (SwissProt) Primary ID of Target Chain>
P0A0K8

> <UniProt (SwissProt) Secondary ID(s) of Target Chain>
P20832

> <UniProt (SwissProt) Alternative ID(s) of Target Chain>


> <UniProt (TrEMBL) Submitted Name of Target Chain>


> <UniProt (TrEMBL) Entry Name of Target Chain>


> <UniProt (TrEMBL) Primary ID of Target Chain>


> <UniProt (TrEMBL) Secondary ID(s) of Target Chain>


> <UniProt (TrEMBL) Alternative ID(s) of Target Chain>


$$$$

  SciTegic12201612272D

 24 27  0  0  0  0            999 V2000
    0.2917   -0.7475    0.0000 C   0  0
    0.2917    0.7475    0.0000 C   0  0
   -1.0028    1.5132    0.0000 C   0  0
   -2.3155    0.7475    0.0000 C   0  0
   -2.3155   -0.7475    0.0000 C   0  0
   -1.0028   -1.5132    0.0000 N   0  0
    2.5889    0.0182    0.0000 N   0  0
    1.7138   -1.2033    0.0000 N   0  0
    1.7138    1.2033    0.0000 C   0  0
   -3.3560   -1.3452    0.0000 O   0  0
    3.6243    2.9682    0.0000 S   0  0
    3.7308    4.4645    0.0000 C   0  0
    2.3406    5.0280    0.0000 N   0  0
    1.3751    3.8801    0.0000 C   0  0
    2.1749    2.6315    0.0000 C   0  0
    6.3724    4.6552    0.0000 C   0  0
    5.0044    5.2582    0.0000 C   0  0
    4.8363    6.7505    0.0000 C   0  0
    6.0460    7.6374    0.0000 C   0  0
    7.4189    7.0332    0.0000 C   0  0
    7.5821    5.5421    0.0000 N   0  0
   -0.9971   -3.0138    0.0000 C   0  0
   -2.2935   -3.7700    0.0000 C   0  0
   -2.2889   -4.9699    0.0000 C   0  0
  1  2  2  0
  2  3  1  0
  3  4  2  0
  4  5  1  0
  5  6  1  0
  1  6  1  0
  7  8  1  0
  7  9  2  0
  1  8  1  0
  2  9  1  0
  5 10  2  0
 11 12  1  0
 12 13  2  0
 13 14  1  0
 14 15  2  0
 11 15  1  0
 16 17  1  0
 17 18  2  0
 18 19  1  0
 19 20  2  0
 20 21  1  0
 16 21  2  0
 12 17  1  0
  9 15  1  0
 22 23  1  0
 23 24  2  0
  6 22  1  0
M  END
> <From> 
www.bindingDB.org

> <BindingDB Reactant_set_id>
50498696

> <Ligand InChI>
InChI=1S/C17H13N5OS/c1-2-8-22-14(23)6-5-12-15(20-21-16(12)22)13-10-19-17(24-13)11-4-3-7-18-9-11/h2-7,9-10H,1,8H2,(H,20,21)

> <Ligand InChI Key>
DMUZHSQAEFAEEB-UHFFFAOYSA-N

> <BindingDB MonomerID>
50173889

> <BindingDB Ligand Name>
CHEMBL3809400

> <Target Name Assigned by Curator or DataSource>
DNA gyrase

> <Target Source Organism According to Curator or DataSource>
Staphylococcus aureus

> <Ki (nM)>


> <IC50 (nM)>
 4.0

> <Kd (nM)>


> <EC50 (nM)>


> <kon (M-1-s-1)>


> <koff (s-1)>


> <pH>


> <Temp C>


> <Curation/DataSource>
ChEMBL

> <Article DOI>
10.1021/acsmedchemlett.5b00368

> <PMID>
27096044

> <PubChem AID>


> <Patent Number>


> <Authors>
Cross, JB; Zhang, J; Yang, Q; Mesleh, MF; Romero, JA; Wang, B; Bevan, D; Poutsiaka, KM; Epie, F; Moy, T; Daniel, A; Shotwell, J; Chamberlain, B; Carter, N; Andersen, O; Barker, J; Ryan, MD; Metcalf, CA; Silverman, J; Nguyen, K; Lippa, B; Dolle, RE

> <Institution>
Cubist Pharmaceuticals, Inc.

> <Link to Ligand in BindingDB>
http://www.bindingdb.org/bind/chemsearch/marvin/MolStructure.jsp?monomerid=50173889

> <Link to Ligand-Target Pair in BindingDB>
http://www.bindingdb.org/jsp/dbsearch/PrimarySearch_ki.jsp?energyterm=kJ/mole&tag=pol&polymerid=2626&target=DNA+gyrase&column=ki&startPg=0&Increment=50&submit=Search

> <Link to Ligand-Target Pair in BindingDB>
http://www.bindingdb.org/jsp/dbsearch/PrimarySearch_ki.jsp?energyterm=kJ/mole&tag=r21&monomerid=50173889&enzyme=DNA+gyrase&column=ki&startPg=0&Increment=50&submit=Search

> <Ligand HET ID in PDB>


> <PDB ID(s) for Ligand-Target Complex>


> <PubChem CID>
127045549

> <PubChem SID>
346548903

> <ChEBI ID of Ligand>


> <ChEMBL ID of Ligand>


> <DrugBank ID of Ligand>


> <IUPHAR_GRAC ID of Ligand>


> <KEGG ID of Ligand>


> <ZINC ID of Ligand>


> <Number of Protein Chains in Target (>1 implies a multichain complex)>
1

> <BindingDB Target Chain Sequence>
MVTALSDVNNTDNYGAGQIQVLEGLEAVRKRPGMYIGSTSERGLHHLVWEIVDNSIDEALAGYANQIEVVIEKDNWIKVTDNGRGIPVDIQEKMGRPAVEVILTVLHAGGKFGGGGYKVSGGLHGVGSSVVNALSQDLEVYVHRNETIYHQAYKKGVPQFDLKEVGTTDKTGTVIRFKADGEIFTETTVYNYETLQQRIRELAFLNKGIQITLRDERDEENVREDSYHYEGGIKSYVELLNENKEPIHDEPIYIHQSKDDIEVEIAIQYNSGYATNLLTYANNIHTYEGGTHEDGFKRALTRVLNSYGLSSKIMKEEKDRLSGEDTREGMTAIISIKHGDPQFEGQTKTKLGNSEVRQVVDKLFSEHFERFLYENPQVARTVVEKGIMAARARVAAKKAREVTRRKSALDVASLPGKLADCSSKSPEECEIFLVEGDSAGGSTKSGRDSRTQAILPLRGKILNVEKARLDRILNNNEIRQMITAFGTGIGGDFDLAKARYHKIVIMTDADVDGAHIRTLLLTFFYRFMRPLIEAGYVYIAQPPLYKLTQGKQKYYVYNDRELDKLKSELNPTPKWSIARYKGLGEMNADQLWETTMNPEHRALLQVKLEDAIEADQTFEMLMGDVVENRRQFIEDNAVYANLDF

> <PDB ID(s) of Target Chain>


> <UniProt (SwissProt) Recommended Name of Target Chain>
DNA gyrase subunit B

> <UniProt (SwissProt) Entry Name of Target Chain>
GYRB_STAAU

> <UniProt (SwissProt) Primary ID of Target Chain>
P0A0K8

> <UniProt (SwissProt) Secondary ID(s) of Target Chain>
P20832

> <UniProt (SwissProt) Alternative ID(s) of Target Chain>


> <UniProt (TrEMBL) Submitted Name of Target Chain>


> <UniProt (TrEMBL) Entry Name of Target Chain>


> <UniProt (TrEMBL) Primary ID of Target Chain>


> <UniProt (TrEMBL) Secondary ID(s) of Target Chain>


> <UniProt (TrEMBL) Alternative ID(s) of Target Chain>


$$$$

  SciTegic09291413392D

 31 34  0  0  0  0            999 V2000
    0.3755  -25.3123    0.0000 C   0  0
    2.4997  -24.0823    0.0000 C   0  0
    2.4985  -24.9019    0.0000 C   0  0
    3.2066  -25.3108    0.0000 N   0  0
    3.2048  -23.6735    0.0000 C   0  0
    3.9134  -24.0787    0.0000 C   0  0
    3.9182  -24.9019    0.0000 C   0  0
    4.7026  -25.1517    0.0000 S   0  0
    5.1826  -24.4829    0.0000 C   0  0
    4.6948  -23.8198    0.0000 N   0  0
    5.9998  -24.4781    0.0000 N   0  0
    6.4042  -23.7680    0.0000 C   0  0
    7.2214  -23.7631    0.0000 N   0  0
    5.9914  -23.0627    0.0000 O   0  0
    7.6258  -23.0530    0.0000 C   0  0
    8.4430  -23.0482    0.0000 C   0  0
    1.7905  -25.3099    0.0000 O   0  0
    1.0831  -24.9008    0.0000 C   0  0
   -0.9216  -25.5919    0.0000 C   0  0
   -0.5078  -26.2995    0.0000 O   0  0
    0.2926  -26.1267    0.0000 C   0  0
   -0.3282  -24.9043    0.0000 C   0  0
    1.7939  -23.6741    0.0000 C   0  0
    1.7951  -22.8558    0.0000 C   0  0
    1.0881  -22.4474    0.0000 C   0  0
    0.3795  -22.8563    0.0000 N   0  0
    0.3824  -23.6777    0.0000 C   0  0
    1.0899  -24.0823    0.0000 C   0  0
    1.0883  -21.6303    0.0000 O   0  0
   -0.3315  -22.4488    0.0000 C   0  0
   -0.3283  -24.0889    0.0000 C   0  0
  2  3  2  0
  3  4  1  0
  4  7  2  0
  6  5  2  0
  5  2  1  0
  6  7  1  0
  7  8  1  0
  8  9  1  0
  9 10  2  0
 10  6  1  0
  9 11  1  0
 11 12  1  0
 12 13  1  0
 12 14  2  0
 13 15  1  0
 15 16  1  0
  3 17  1  0
 17 18  1  0
 18  1  1  0
  1 22  1  0
 22 19  1  0
 19 20  1  0
 20 21  1  0
 21  1  1  0
 23 24  2  0
 24 25  1  0
 25 26  1  0
 26 27  1  0
 27 28  2  0
 28 23  1  0
  2 23  1  0
 25 29  2  0
 26 30  1  0
 27 31  1  0
M  END
> <From> 
www.bindingDB.org

> <BindingDB Reactant_set_id>
50089949

> <Ligand InChI>
InChI=1S/C21H25N5O4S/c1-4-22-20(28)25-21-23-16-9-15(14-7-12(2)26(3)17(27)8-14)18(24-19(16)31-21)30-11-13-5-6-29-10-13/h7-9,13H,4-6,10-11H2,1-3H3,(H2,22,23,25,28)

> <Ligand InChI Key>
PIISHUMRZZYUSO-UHFFFAOYSA-N

> <BindingDB MonomerID>
50010374

> <BindingDB Ligand Name>
CHEMBL3263616

> <Target Name Assigned by Curator or DataSource>
DNA gyrase subunit B

> <Target Source Organism According to Curator or DataSource>


> <Ki (nM)>


> <IC50 (nM)>
 4.6

> <Kd (nM)>


> <EC50 (nM)>


> <kon (M-1-s-1)>


> <koff (s-1)>


> <pH>


> <Temp C>


> <Curation/DataSource>
ChEMBL

> <Article DOI>
10.1021/jm401268f

> <PMID>
24088190

> <PubChem AID>


> <Patent Number>


> <Authors>
Ahuja, V; Ahuja, V; Basavarajappa, H; Basavarajappa, H; P, SH; P, SH; Boriack-Sjodin, PA; Boriack-Sjodin, PA; McKinney, D; McKinney, D; Ganguly, S; Ganguly, S; Kranthi, U; Kranthi, U; Gaonkar, S; Gaonkar, S; Jena, Lk; Jena, Lk; Ghorpade, SR; Ghorpade, SR; Ghosh, A; Ghosh, A; Barde, S; Barde, S; Kale, MG; Kale, MG; Koushik, K; Koushik, K; Kumar, CN; Kumar, CN; Manjunatha, MR; Manjunatha, MR; Ogg, D; Ogg, D; Panduga, V; Panduga, V; Ramya, VK; Ramya, VK; Reddy, J; Reddy, J; Kumar, KN; Kumar, KN; Giridhar, J; Giridhar, J; Rudrapatna, S; Rudrapatna, S; Sharma, S; Sharma, S; Tucker, JA; Tucker, JA; Vachaspati, P; Vachaspati, P; Waterson, D; Waterson, D; de Sousa, SM; de Sousa, SM

> <Institution>
AstraZeneca India Pvt. Ltd.

> <Link to Ligand in BindingDB>
http://www.bindingdb.org/bind/chemsearch/marvin/MolStructure.jsp?monomerid=50010374

> <Link to Ligand-Target Pair in BindingDB>
http://www.bindingdb.org/jsp/dbsearch/PrimarySearch_ki.jsp?energyterm=kJ/mole&tag=pol&polymerid=50006452&target=DNA+gyrase+subunit+B&column=ki&startPg=0&Increment=50&submit=Search

> <Link to Ligand-Target Pair in BindingDB>
http://www.bindingdb.org/jsp/dbsearch/PrimarySearch_ki.jsp?energyterm=kJ/mole&tag=r21&monomerid=50010374&enzyme=DNA+gyrase+subunit+B&column=ki&startPg=0&Increment=50&submit=Search

> <Ligand HET ID in PDB>


> <PDB ID(s) for Ligand-Target Complex>


> <PubChem CID>
72713516

> <PubChem SID>
103923188

> <ChEBI ID of Ligand>


> <ChEMBL ID of Ligand>
CHEMBL3263616

> <DrugBank ID of Ligand>


> <IUPHAR_GRAC ID of Ligand>


> <KEGG ID of Ligand>


> <ZINC ID of Ligand>
ZINC13446711

> <Number of Protein Chains in Target (>1 implies a multichain complex)>
1

> <BindingDB Target Chain Sequence>
MAAQKNNAPKEYGADSITILEGLEAVRKRPGMYIGSTGERGLHHLIWEVVDNAVDEAMAGFATRVDVKIHADGSVEVRDDGRGIPVEMHATGMPTIDVVMTQLHAGGKFDGETYAVSGGLHGVGVSVVNALSTRLEATVLRDGYEWFQYYDRSVPGKLKQGGETKETGTTIRFWADPEIFETTDYNFETVARRLQEMAFLNKGLTIELTDERVTAEEVVDDVVKDTAEAPKTADEKAAEATGPSKVKHRVFHYPGGLVDYVKHINRTKTPIQQSIIDFDGKGPGHEVEIAMQWNAGYSESVHTFANTINTHEGGTHEEGFRAALTSVVNRYAKDKKLLKDKDPNLTGDDIREGLAAVISVKVAEPQFEGQTKTKLGNTEVKSFVQKICNEQLQHWFEANPAEAKTVVNKAVSSAQARIAARKARELVRRKSATDIGGLPGKLADCRSTDPSKSELYVVEGDSAGGSAKSGRDSMFQAILPLRGKIINVEKARIDRVLKNTEVQSIITALGTGIHDEFDISKLRYHKIVLMADADVDGQHISTLLLTLLFRFMKPLVENGHIFLAQPPLYKLKWQRSEPEFAYSDRERDGLLEAGRAAGKKINVDDGIQRYKGLGEMDAKELWETTMDPSVRVLRQVTLDDAAAADELFSILMGEDVEARRSFITRNAKDVRFLDV

> <PDB ID(s) of Target Chain>
4BAE

> <UniProt (SwissProt) Recommended Name of Target Chain>
DNA gyrase subunit B

> <UniProt (SwissProt) Entry Name of Target Chain>
GYRB_MYCSM

> <UniProt (SwissProt) Primary ID of Target Chain>
P0C559

> <UniProt (SwissProt) Secondary ID(s) of Target Chain>
P48355,Q59555

> <UniProt (SwissProt) Alternative ID(s) of Target Chain>


> <UniProt (TrEMBL) Submitted Name of Target Chain>


> <UniProt (TrEMBL) Entry Name of Target Chain>


> <UniProt (TrEMBL) Primary ID of Target Chain>


> <UniProt (TrEMBL) Secondary ID(s) of Target Chain>


> <UniProt (TrEMBL) Alternative ID(s) of Target Chain>


$$$$

  Mrv0541 11241412072D          

 32 35  0  0  0  0            999 V2000
    6.3575    1.4639    0.0000 C   0  0  0  0  0  0  0  0  0  0  0  0
    7.0738    1.8771    0.0000 C   0  0  0  0  0  0  0  0  0  0  0  0
    7.0709    2.7075    0.0000 C   0  0  0  0  0  0  0  0  0  0  0  0
    6.3557    3.1167    0.0000 N   0  0  0  0  0  0  0  0  0  0  0  0
    5.6427    1.8766    0.0000 C   0  0  0  0  0  0  0  0  0  0  0  0
    5.6440    2.7055    0.0000 C   0  0  0  0  0  0  0  0  0  0  0  0
    4.8560    2.9628    0.0000 N   0  0  0  0  0  0  0  0  0  0  0  0
    4.3678    2.2930    0.0000 C   0  0  0  0  0  0  0  0  0  0  0  0
    4.8540    1.6217    0.0000 C   0  0  0  0  0  0  0  0  0  0  0  0
    7.7854    1.4666    0.0000 C   0  0  0  0  0  0  0  0  0  0  0  0
    7.7853    0.6405    0.0000 C   0  0  0  0  0  0  0  0  0  0  0  0
    8.4995    0.2293    0.0000 N   0  0  0  0  0  0  0  0  0  0  0  0
    9.2142    0.6429    0.0000 C   0  0  0  0  0  0  0  0  0  0  0  0
    9.2102    1.4721    0.0000 C   0  0  0  0  0  0  0  0  0  0  0  0
    8.4955    1.8796    0.0000 C   0  0  0  0  0  0  0  0  0  0  0  0
    9.9252    1.8896    0.0000 C   0  0  0  0  0  0  0  0  0  0  0  0
   10.6417    1.4808    0.0000 O   0  0  0  0  0  0  0  0  0  0  0  0
    9.9210    2.7144    0.0000 O   0  0  0  0  0  0  0  0  0  0  0  0
    6.3596    0.6426    0.0000 N   0  0  0  0  0  0  0  0  0  0  0  0
    5.6922    0.1579    0.0000 C   0  0  0  0  0  0  0  0  0  0  0  0
    5.9468   -0.6267    0.0000 C   0  0  0  0  0  0  0  0  0  0  0  0
    6.7719   -0.6269    0.0000 C   0  0  0  0  0  0  0  0  0  0  0  0
    7.0268    0.1576    0.0000 N   0  0  0  0  0  0  0  0  0  0  0  0
    7.2566   -1.2944    0.0000 C   0  0  0  0  0  0  0  0  0  0  0  0
    6.9210   -2.0479    0.0000 F   0  0  0  0  0  0  0  0  0  0  0  0
    8.0770   -1.2083    0.0000 F   0  0  0  0  0  0  0  0  0  0  0  0
    7.6618   -2.0040    0.0000 F   0  0  0  0  0  0  0  0  0  0  0  0
    3.5429    2.2942    0.0000 C   0  0  0  0  0  0  0  0  0  0  0  0
    3.1315    3.0092    0.0000 N   0  0  0  0  0  0  0  0  0  0  0  0
    3.1294    1.5804    0.0000 O   0  0  0  0  0  0  0  0  0  0  0  0
    2.3066    3.0104    0.0000 C   0  0  0  0  0  0  0  0  0  0  0  0
    1.8951    3.7254    0.0000 C   0  0  0  0  0  0  0  0  0  0  0  0
  2 10  1  0  0  0  0
  3  4  1  0  0  0  0
  6  7  1  0  0  0  0
  7  8  1  0  0  0  0
 16 17  1  0  0  0  0
 16 18  2  0  0  0  0
 14 16  1  0  0  0  0
 19 20  1  0  0  0  0
  8  9  2  0  0  0  0
  9  5  1  0  0  0  0
  4  6  2  0  0  0  0
  5  6  1  0  0  0  0
 10 11  2  0  0  0  0
 20 21  2  0  0  0  0
 21 22  1  0  0  0  0
 22 23  2  0  0  0  0
 23 19  1  0  0  0  0
  1 19  1  0  0  0  0
  1  2  1  0  0  0  0
 22 24  1  0  0  0  0
 11 12  1  0  0  0  0
 24 25  1  0  0  0  0
  5  1  2  0  0  0  0
 24 26  1  0  0  0  0
 12 13  2  0  0  0  0
 24 27  1  0  0  0  0
  2  3  2  0  0  0  0
  8 28  1  0  0  0  0
 13 14  1  0  0  0  0
 28 29  1  0  0  0  0
 28 30  2  0  0  0  0
 14 15  2  0  0  0  0
 29 31  1  0  0  0  0
 15 10  1  0  0  0  0
 31 32  1  0  0  0  0
M  END
> <From> 
www.bindingDB.org

> <BindingDB Reactant_set_id>
50945989

> <Ligand InChI>
InChI=1S/C20H15F3N6O3/c1-2-25-18(30)14-6-12-16(29-4-3-15(28-29)20(21,22)23)13(9-26-17(12)27-14)10-5-11(19(31)32)8-24-7-10/h3-9H,2H2,1H3,(H,25,30)(H,26,27)(H,31,32)

> <Ligand InChI Key>
QEODWPGJXCSBCR-UHFFFAOYSA-N

> <BindingDB MonomerID>
50388092

> <BindingDB Ligand Name>
CHEMBL2059196

> <Target Name Assigned by Curator or DataSource>
DNA Gyrase Subunit B

> <Target Source Organism According to Curator or DataSource>
Staphylococcus aureus

> <Ki (nM)>


> <IC50 (nM)>
 5

> <Kd (nM)>


> <EC50 (nM)>


> <kon (M-1-s-1)>


> <koff (s-1)>


> <pH>


> <Temp C>


> <Curation/DataSource>
ChEMBL

> <Article DOI>
10.1016/j.bmcl.2012.05.128

> <PMID>
22814212

> <PubChem AID>


> <Patent Number>


> <Authors>
Manchester, JI; Dussault, DD; Rose, JA; Boriack-Sjodin, PA; Uria-Nickelsen, M; Ioannidis, G; Bist, S; Fleming, P; Hull, KG

> <Institution>
AstraZeneca

> <Link to Ligand in BindingDB>
http://www.bindingdb.org/bind/chemsearch/marvin/MolStructure.jsp?monomerid=50388092

> <Link to Ligand-Target Pair in BindingDB>
http://www.bindingdb.org/jsp/dbsearch/PrimarySearch_ki.jsp?energyterm=kJ/mole&tag=pol&polymerid=2626&target=DNA+Gyrase+Subunit+B&column=ki&startPg=0&Increment=50&submit=Search

> <Link to Ligand-Target Pair in BindingDB>
http://www.bindingdb.org/jsp/dbsearch/PrimarySearch_ki.jsp?energyterm=kJ/mole&tag=r21&monomerid=50388092&enzyme=DNA+Gyrase+Subunit+B&column=ki&startPg=0&Increment=50&submit=Search

> <Ligand HET ID in PDB>
0R9

> <PDB ID(s) for Ligand-Target Complex>
4EMV

> <PubChem CID>
57411983

> <PubChem SID>
160867175

> <ChEBI ID of Ligand>


> <ChEMBL ID of Ligand>
CHEMBL2059196

> <DrugBank ID of Ligand>


> <IUPHAR_GRAC ID of Ligand>


> <KEGG ID of Ligand>


> <ZINC ID of Ligand>
ZINC84672473

> <Number of Protein Chains in Target (>1 implies a multichain complex)>
1

> <BindingDB Target Chain Sequence>
MVTALSDVNNTDNYGAGQIQVLEGLEAVRKRPGMYIGSTSERGLHHLVWEIVDNSIDEALAGYANQIEVVIEKDNWIKVTDNGRGIPVDIQEKMGRPAVEVILTVLHAGGKFGGGGYKVSGGLHGVGSSVVNALSQDLEVYVHRNETIYHQAYKKGVPQFDLKEVGTTDKTGTVIRFKADGEIFTETTVYNYETLQQRIRELAFLNKGIQITLRDERDEENVREDSYHYEGGIKSYVELLNENKEPIHDEPIYIHQSKDDIEVEIAIQYNSGYATNLLTYANNIHTYEGGTHEDGFKRALTRVLNSYGLSSKIMKEEKDRLSGEDTREGMTAIISIKHGDPQFEGQTKTKLGNSEVRQVVDKLFSEHFERFLYENPQVARTVVEKGIMAARARVAAKKAREVTRRKSALDVASLPGKLADCSSKSPEECEIFLVEGDSAGGSTKSGRDSRTQAILPLRGKILNVEKARLDRILNNNEIRQMITAFGTGIGGDFDLAKARYHKIVIMTDADVDGAHIRTLLLTFFYRFMRPLIEAGYVYIAQPPLYKLTQGKQKYYVYNDRELDKLKSELNPTPKWSIARYKGLGEMNADQLWETTMNPEHRALLQVKLEDAIEADQTFEMLMGDVVENRRQFIEDNAVYANLDF

> <PDB ID(s) of Target Chain>


> <UniProt (SwissProt) Recommended Name of Target Chain>
DNA gyrase subunit B

> <UniProt (SwissProt) Entry Name of Target Chain>
GYRB_STAAU

> <UniProt (SwissProt) Primary ID of Target Chain>
P0A0K8

> <UniProt (SwissProt) Secondary ID(s) of Target Chain>
P20832

> <UniProt (SwissProt) Alternative ID(s) of Target Chain>


> <UniProt (TrEMBL) Submitted Name of Target Chain>


> <UniProt (TrEMBL) Entry Name of Target Chain>


> <UniProt (TrEMBL) Primary ID of Target Chain>


> <UniProt (TrEMBL) Secondary ID(s) of Target Chain>


> <UniProt (TrEMBL) Alternative ID(s) of Target Chain>


$$$$

  SciTegic09291413392D

 28 31  0  0  0  0            999 V2000
    2.1984  -11.7364    0.0000 C   0  0
    2.1972  -12.5637    0.0000 C   0  0
    2.9120  -12.9766    0.0000 N   0  0
    2.9102  -11.3237    0.0000 C   0  0
    3.6255  -11.7328    0.0000 C   0  0
    3.6303  -12.5637    0.0000 C   0  0
    4.4222  -12.8158    0.0000 S   0  0
    4.9067  -12.1407    0.0000 C   0  0
    4.4143  -11.4714    0.0000 N   0  0
    1.4859  -11.3243    0.0000 C   0  0
    1.4871  -10.4982    0.0000 C   0  0
    0.7735  -10.0861    0.0000 C   0  0
    0.0581  -10.4987    0.0000 C   0  0
    0.0610  -11.3279    0.0000 N   0  0
    5.7316  -12.1359    0.0000 N   0  0
    6.1399  -11.4191    0.0000 C   0  0
    6.9648  -11.4142    0.0000 N   0  0
    5.7232  -10.7071    0.0000 O   0  0
    7.3730  -10.6973    0.0000 C   0  0
    8.1979  -10.6924    0.0000 C   0  0
    1.4825  -12.9755    0.0000 O   0  0
    0.7684  -12.5626    0.0000 C   0  0
    0.7690  -11.7376    0.0000 C   0  0
    0.0537  -12.9744    0.0000 C   0  0
   -0.7037  -12.6406    0.0000 C   0  0
   -1.2511  -13.2532    0.0000 C   0  0
   -0.8381  -13.9680    0.0000 O   0  0
   -0.0368  -13.7970    0.0000 C   0  0
  1  2  2  0
  2  3  1  0
  3  6  2  0
  5  4  2  0
  4  1  1  0
  5  6  1  0
  6  7  1  0
  7  8  1  0
  8  9  2  0
  9  5  1  0
 10 11  2  0
 11 12  1  0
 12 13  2  0
 13 14  1  0
 14 23  2  0
 23 10  1  0
  1 10  1  0
  8 15  1  0
 15 16  1  0
 16 17  1  0
 16 18  2  0
 17 19  1  0
 19 20  1  0
  2 21  1  0
 21 22  1  0
 22 24  1  0
 24 25  1  0
 25 26  1  0
 26 27  1  0
 27 28  1  0
 28 24  1  0
M  END
> <From> 
www.bindingDB.org

> <BindingDB Reactant_set_id>
50089901

> <Ligand InChI>
InChI=1S/C19H21N5O3S/c1-2-21-18(25)24-19-22-15-8-14(13-4-3-6-20-9-13)16(23-17(15)28-19)27-11-12-5-7-26-10-12/h3-4,6,8-9,12H,2,5,7,10-11H2,1H3,(H2,21,22,24,25)

> <Ligand InChI Key>
VKXYARKCCDVKTJ-UHFFFAOYSA-N

> <BindingDB MonomerID>
50010347

> <BindingDB Ligand Name>
CHEMBL3263591

> <Target Name Assigned by Curator or DataSource>
DNA gyrase subunit B

> <Target Source Organism According to Curator or DataSource>


> <Ki (nM)>


> <IC50 (nM)>
 5.0

> <Kd (nM)>


> <EC50 (nM)>


> <kon (M-1-s-1)>


> <koff (s-1)>


> <pH>


> <Temp C>


> <Curation/DataSource>
ChEMBL

> <Article DOI>
10.1021/jm401268f

> <PMID>
24088190

> <PubChem AID>


> <Patent Number>


> <Authors>
Ahuja, V; Ahuja, V; Basavarajappa, H; Basavarajappa, H; P, SH; P, SH; Boriack-Sjodin, PA; Boriack-Sjodin, PA; McKinney, D; McKinney, D; Ganguly, S; Ganguly, S; Kranthi, U; Kranthi, U; Gaonkar, S; Gaonkar, S; Jena, Lk; Jena, Lk; Ghorpade, SR; Ghorpade, SR; Ghosh, A; Ghosh, A; Barde, S; Barde, S; Kale, MG; Kale, MG; Koushik, K; Koushik, K; Kumar, CN; Kumar, CN; Manjunatha, MR; Manjunatha, MR; Ogg, D; Ogg, D; Panduga, V; Panduga, V; Ramya, VK; Ramya, VK; Reddy, J; Reddy, J; Kumar, KN; Kumar, KN; Giridhar, J; Giridhar, J; Rudrapatna, S; Rudrapatna, S; Sharma, S; Sharma, S; Tucker, JA; Tucker, JA; Vachaspati, P; Vachaspati, P; Waterson, D; Waterson, D; de Sousa, SM; de Sousa, SM

> <Institution>
AstraZeneca India Pvt. Ltd.

> <Link to Ligand in BindingDB>
http://www.bindingdb.org/bind/chemsearch/marvin/MolStructure.jsp?monomerid=50010347

> <Link to Ligand-Target Pair in BindingDB>
http://www.bindingdb.org/jsp/dbsearch/PrimarySearch_ki.jsp?energyterm=kJ/mole&tag=pol&polymerid=50006452&target=DNA+gyrase+subunit+B&column=ki&startPg=0&Increment=50&submit=Search

> <Link to Ligand-Target Pair in BindingDB>
http://www.bindingdb.org/jsp/dbsearch/PrimarySearch_ki.jsp?energyterm=kJ/mole&tag=r21&monomerid=50010347&enzyme=DNA+gyrase+subunit+B&column=ki&startPg=0&Increment=50&submit=Search

> <Ligand HET ID in PDB>


> <PDB ID(s) for Ligand-Target Complex>


> <PubChem CID>
59352812

> <PubChem SID>
103923161

> <ChEBI ID of Ligand>


> <ChEMBL ID of Ligand>
CHEMBL3263591

> <DrugBank ID of Ligand>


> <IUPHAR_GRAC ID of Ligand>


> <KEGG ID of Ligand>


> <ZINC ID of Ligand>
ZINC13446734

> <Number of Protein Chains in Target (>1 implies a multichain complex)>
1

> <BindingDB Target Chain Sequence>
MAAQKNNAPKEYGADSITILEGLEAVRKRPGMYIGSTGERGLHHLIWEVVDNAVDEAMAGFATRVDVKIHADGSVEVRDDGRGIPVEMHATGMPTIDVVMTQLHAGGKFDGETYAVSGGLHGVGVSVVNALSTRLEATVLRDGYEWFQYYDRSVPGKLKQGGETKETGTTIRFWADPEIFETTDYNFETVARRLQEMAFLNKGLTIELTDERVTAEEVVDDVVKDTAEAPKTADEKAAEATGPSKVKHRVFHYPGGLVDYVKHINRTKTPIQQSIIDFDGKGPGHEVEIAMQWNAGYSESVHTFANTINTHEGGTHEEGFRAALTSVVNRYAKDKKLLKDKDPNLTGDDIREGLAAVISVKVAEPQFEGQTKTKLGNTEVKSFVQKICNEQLQHWFEANPAEAKTVVNKAVSSAQARIAARKARELVRRKSATDIGGLPGKLADCRSTDPSKSELYVVEGDSAGGSAKSGRDSMFQAILPLRGKIINVEKARIDRVLKNTEVQSIITALGTGIHDEFDISKLRYHKIVLMADADVDGQHISTLLLTLLFRFMKPLVENGHIFLAQPPLYKLKWQRSEPEFAYSDRERDGLLEAGRAAGKKINVDDGIQRYKGLGEMDAKELWETTMDPSVRVLRQVTLDDAAAADELFSILMGEDVEARRSFITRNAKDVRFLDV

> <PDB ID(s) of Target Chain>
4BAE

> <UniProt (SwissProt) Recommended Name of Target Chain>
DNA gyrase subunit B

> <UniProt (SwissProt) Entry Name of Target Chain>
GYRB_MYCSM

> <UniProt (SwissProt) Primary ID of Target Chain>
P0C559

> <UniProt (SwissProt) Secondary ID(s) of Target Chain>
P48355,Q59555

> <UniProt (SwissProt) Alternative ID(s) of Target Chain>


> <UniProt (TrEMBL) Submitted Name of Target Chain>


> <UniProt (TrEMBL) Entry Name of Target Chain>


> <UniProt (TrEMBL) Primary ID of Target Chain>


> <UniProt (TrEMBL) Secondary ID(s) of Target Chain>


> <UniProt (TrEMBL) Alternative ID(s) of Target Chain>


$$$$

  Mrv0541 11241420052D          

 29 31  0  0  0  0            999 V2000
   22.7324  -15.6878    0.0000 C   0  0  0  0  0  0  0  0  0  0  0  0
   22.7313  -16.5152    0.0000 C   0  0  0  0  0  0  0  0  0  0  0  0
   23.4460  -16.9281    0.0000 N   0  0  0  0  0  0  0  0  0  0  0  0
   23.4443  -15.2750    0.0000 C   0  0  0  0  0  0  0  0  0  0  0  0
   22.0178  -15.2755    0.0000 C   0  0  0  0  0  0  0  0  0  0  0  0
   24.1597  -15.6842    0.0000 C   0  0  0  0  0  0  0  0  0  0  0  0
   24.1599  -16.5153    0.0000 C   0  0  0  0  0  0  0  0  0  0  0  0
   24.9504  -16.7718    0.0000 S   0  0  0  0  0  0  0  0  0  0  0  0
   25.4388  -16.0993    0.0000 C   0  0  0  0  0  0  0  0  0  0  0  0
   24.9500  -15.4272    0.0000 N   0  0  0  0  0  0  0  0  0  0  0  0
   26.2638  -16.0990    0.0000 N   0  0  0  0  0  0  0  0  0  0  0  0
   26.6761  -15.3844    0.0000 C   0  0  0  0  0  0  0  0  0  0  0  0
   27.5010  -15.3842    0.0000 O   0  0  0  0  0  0  0  0  0  0  0  0
   26.2633  -14.6701    0.0000 N   0  0  0  0  0  0  0  0  0  0  0  0
   26.6756  -13.9554    0.0000 C   0  0  0  0  0  0  0  0  0  0  0  0
   26.2628  -13.2411    0.0000 C   0  0  0  0  0  0  0  0  0  0  0  0
   22.0165  -16.9271    0.0000 O   0  0  0  0  0  0  0  0  0  0  0  0
   23.4463  -17.7531    0.0000 C   0  0  0  0  0  0  0  0  0  0  0  0
   22.7320  -18.1658    0.0000 C   0  0  0  0  0  0  0  0  0  0  0  0
   24.1609  -18.1654    0.0000 C   0  0  0  0  0  0  0  0  0  0  0  0
   22.0211  -14.4495    0.0000 C   0  0  0  0  0  0  0  0  0  0  0  0
   21.3074  -14.0373    0.0000 C   0  0  0  0  0  0  0  0  0  0  0  0
   20.5920  -14.4500    0.0000 N   0  0  0  0  0  0  0  0  0  0  0  0
   20.5948  -15.2793    0.0000 C   0  0  0  0  0  0  0  0  0  0  0  0
   21.3092  -15.6878    0.0000 C   0  0  0  0  0  0  0  0  0  0  0  0
   21.3076  -13.2123    0.0000 O   0  0  0  0  0  0  0  0  0  0  0  0
   19.8768  -14.0386    0.0000 C   0  0  0  0  0  0  0  0  0  0  0  0
   19.8756  -13.2136    0.0000 C   0  0  0  0  0  0  0  0  0  0  0  0
   19.8819  -15.6945    0.0000 C   0  0  0  0  0  0  0  0  0  0  0  0
  1  2  1  0  0  0  0
  2  3  1  0  0  0  0
  3  7  1  0  0  0  0
  6  4  1  0  0  0  0
  4  1  2  0  0  0  0
  1  5  1  0  0  0  0
  6  7  2  0  0  0  0
  7  8  1  0  0  0  0
  8  9  1  0  0  0  0
  9 10  2  0  0  0  0
 10  6  1  0  0  0  0
  9 11  1  0  0  0  0
 11 12  1  0  0  0  0
 12 13  2  0  0  0  0
 12 14  1  0  0  0  0
 14 15  1  0  0  0  0
 15 16  1  0  0  0  0
  2 17  2  0  0  0  0
  3 18  1  0  0  0  0
 18 19  1  0  0  0  0
 18 20  1  0  0  0  0
  5 21  2  0  0  0  0
 21 22  1  0  0  0  0
 22 23  1  0  0  0  0
 23 24  1  0  0  0  0
 24 25  2  0  0  0  0
 25  5  1  0  0  0  0
 22 26  2  0  0  0  0
 23 27  1  0  0  0  0
 27 28  1  0  0  0  0
 24 29  1  0  0  0  0
M  END
> <From> 
www.bindingDB.org

> <BindingDB Reactant_set_id>
51091613

> <Ligand InChI>
InChI=1S/C20H25N5O3S/c1-6-21-19(28)23-20-22-15-10-14(17(27)25(11(3)4)18(15)29-20)13-8-12(5)24(7-2)16(26)9-13/h8-11H,6-7H2,1-5H3,(H2,21,22,23,28)

> <Ligand InChI Key>
QTURTFTWEFXRHE-UHFFFAOYSA-N

> <BindingDB MonomerID>
50447301

> <BindingDB Ligand Name>
CHEMBL3114206

> <Target Name Assigned by Curator or DataSource>
DNA gyrase subunit B

> <Target Source Organism According to Curator or DataSource>


> <Ki (nM)>


> <IC50 (nM)>
 5.0

> <Kd (nM)>


> <EC50 (nM)>


> <kon (M-1-s-1)>


> <koff (s-1)>


> <pH>


> <Temp C>


> <Curation/DataSource>
ChEMBL

> <Article DOI>
10.1016/j.bmcl.2013.12.080

> <PMID>
24405701

> <PubChem AID>


> <Patent Number>


> <Authors>
Kale, RR; Kale, MG; Waterson, D; Raichurkar, A; Hameed, SP; Manjunatha, MR; Kishore Reddy, BK; Malolanarasimhan, K; Shinde, V; Koushik, K; Jena, LK; Menasinakai, S; Humnabadkar, V; Madhavapeddi, P; Basavarajappa, H; Sharma, S; Nandishaiah, R; Mahesh Kumar, KN; Ganguly, S; Ahuja, V; Gaonkar, S; Naveen Kumar, CN; Ogg, D; Boriack-Sjodin, PA; Sambandamurthy, VK; de Sousa, SM; Ghorpade, SR

> <Institution>
AstraZeneca

> <Link to Ligand in BindingDB>
http://www.bindingdb.org/bind/chemsearch/marvin/MolStructure.jsp?monomerid=50447301

> <Link to Ligand-Target Pair in BindingDB>
http://www.bindingdb.org/jsp/dbsearch/PrimarySearch_ki.jsp?energyterm=kJ/mole&tag=pol&polymerid=50006452&target=DNA+gyrase+subunit+B&column=ki&startPg=0&Increment=50&submit=Search

> <Link to Ligand-Target Pair in BindingDB>
http://www.bindingdb.org/jsp/dbsearch/PrimarySearch_ki.jsp?energyterm=kJ/mole&tag=r21&monomerid=50447301&enzyme=DNA+gyrase+subunit+B&column=ki&startPg=0&Increment=50&submit=Search

> <Ligand HET ID in PDB>


> <PDB ID(s) for Ligand-Target Complex>


> <PubChem CID>
76328607

> <PubChem SID>
194945197

> <ChEBI ID of Ligand>


> <ChEMBL ID of Ligand>
CHEMBL3114206

> <DrugBank ID of Ligand>


> <IUPHAR_GRAC ID of Ligand>


> <KEGG ID of Ligand>


> <ZINC ID of Ligand>


> <Number of Protein Chains in Target (>1 implies a multichain complex)>
1

> <BindingDB Target Chain Sequence>
MAAQKNNAPKEYGADSITILEGLEAVRKRPGMYIGSTGERGLHHLIWEVVDNAVDEAMAGFATRVDVKIHADGSVEVRDDGRGIPVEMHATGMPTIDVVMTQLHAGGKFDGETYAVSGGLHGVGVSVVNALSTRLEATVLRDGYEWFQYYDRSVPGKLKQGGETKETGTTIRFWADPEIFETTDYNFETVARRLQEMAFLNKGLTIELTDERVTAEEVVDDVVKDTAEAPKTADEKAAEATGPSKVKHRVFHYPGGLVDYVKHINRTKTPIQQSIIDFDGKGPGHEVEIAMQWNAGYSESVHTFANTINTHEGGTHEEGFRAALTSVVNRYAKDKKLLKDKDPNLTGDDIREGLAAVISVKVAEPQFEGQTKTKLGNTEVKSFVQKICNEQLQHWFEANPAEAKTVVNKAVSSAQARIAARKARELVRRKSATDIGGLPGKLADCRSTDPSKSELYVVEGDSAGGSAKSGRDSMFQAILPLRGKIINVEKARIDRVLKNTEVQSIITALGTGIHDEFDISKLRYHKIVLMADADVDGQHISTLLLTLLFRFMKPLVENGHIFLAQPPLYKLKWQRSEPEFAYSDRERDGLLEAGRAAGKKINVDDGIQRYKGLGEMDAKELWETTMDPSVRVLRQVTLDDAAAADELFSILMGEDVEARRSFITRNAKDVRFLDV

> <PDB ID(s) of Target Chain>
4BAE

> <UniProt (SwissProt) Recommended Name of Target Chain>
DNA gyrase subunit B

> <UniProt (SwissProt) Entry Name of Target Chain>
GYRB_MYCSM

> <UniProt (SwissProt) Primary ID of Target Chain>
P0C559

> <UniProt (SwissProt) Secondary ID(s) of Target Chain>
P48355,Q59555

> <UniProt (SwissProt) Alternative ID(s) of Target Chain>


> <UniProt (TrEMBL) Submitted Name of Target Chain>


> <UniProt (TrEMBL) Entry Name of Target Chain>


> <UniProt (TrEMBL) Primary ID of Target Chain>


> <UniProt (TrEMBL) Secondary ID(s) of Target Chain>


> <UniProt (TrEMBL) Alternative ID(s) of Target Chain>


$$$$

  Mrv0541 11241420052D          

 30 32  0  0  0  0            999 V2000
    3.5611  -21.9122    0.0000 C   0  0  0  0  0  0  0  0  0  0  0  0
    3.5599  -22.7396    0.0000 C   0  0  0  0  0  0  0  0  0  0  0  0
    4.2747  -23.1525    0.0000 N   0  0  0  0  0  0  0  0  0  0  0  0
    4.2729  -21.4994    0.0000 C   0  0  0  0  0  0  0  0  0  0  0  0
    2.8465  -21.4998    0.0000 C   0  0  0  0  0  0  0  0  0  0  0  0
    4.9883  -21.9086    0.0000 C   0  0  0  0  0  0  0  0  0  0  0  0
    4.9885  -22.7396    0.0000 C   0  0  0  0  0  0  0  0  0  0  0  0
    5.7789  -22.9962    0.0000 S   0  0  0  0  0  0  0  0  0  0  0  0
    6.2672  -22.3237    0.0000 C   0  0  0  0  0  0  0  0  0  0  0  0
    5.7785  -21.6516    0.0000 N   0  0  0  0  0  0  0  0  0  0  0  0
    7.0922  -22.3234    0.0000 N   0  0  0  0  0  0  0  0  0  0  0  0
    7.5045  -21.6088    0.0000 C   0  0  0  0  0  0  0  0  0  0  0  0
    8.3295  -21.6085    0.0000 O   0  0  0  0  0  0  0  0  0  0  0  0
    7.0917  -20.8945    0.0000 N   0  0  0  0  0  0  0  0  0  0  0  0
    7.5040  -20.1799    0.0000 C   0  0  0  0  0  0  0  0  0  0  0  0
    7.0912  -19.4655    0.0000 C   0  0  0  0  0  0  0  0  0  0  0  0
    2.8451  -23.1515    0.0000 O   0  0  0  0  0  0  0  0  0  0  0  0
    4.2749  -23.9774    0.0000 C   0  0  0  0  0  0  0  0  0  0  0  0
    3.5606  -24.3901    0.0000 C   0  0  0  0  0  0  0  0  0  0  0  0
    4.9895  -24.3898    0.0000 C   0  0  0  0  0  0  0  0  0  0  0  0
    2.8497  -20.6739    0.0000 C   0  0  0  0  0  0  0  0  0  0  0  0
    2.1360  -20.2617    0.0000 C   0  0  0  0  0  0  0  0  0  0  0  0
    1.4206  -20.6744    0.0000 N   0  0  0  0  0  0  0  0  0  0  0  0
    1.4235  -21.5037    0.0000 C   0  0  0  0  0  0  0  0  0  0  0  0
    2.1378  -21.9121    0.0000 C   0  0  0  0  0  0  0  0  0  0  0  0
    2.1362  -19.4367    0.0000 O   0  0  0  0  0  0  0  0  0  0  0  0
    0.7056  -20.2631    0.0000 C   0  0  0  0  0  0  0  0  0  0  0  0
    0.7043  -19.4381    0.0000 C   0  0  0  0  0  0  0  0  0  0  0  0
   -0.0141  -19.0267    0.0000 O   0  0  0  0  0  0  0  0  0  0  0  0
   -0.0128  -18.2017    0.0000 C   0  0  0  0  0  0  0  0  0  0  0  0
  1  2  1  0  0  0  0
  2  3  1  0  0  0  0
  3  7  1  0  0  0  0
  6  4  1  0  0  0  0
  4  1  2  0  0  0  0
  1  5  1  0  0  0  0
  6  7  2  0  0  0  0
  7  8  1  0  0  0  0
  8  9  1  0  0  0  0
  9 10  2  0  0  0  0
 10  6  1  0  0  0  0
  9 11  1  0  0  0  0
 11 12  1  0  0  0  0
 12 13  2  0  0  0  0
 12 14  1  0  0  0  0
 14 15  1  0  0  0  0
 15 16  1  0  0  0  0
  2 17  2  0  0  0  0
  3 18  1  0  0  0  0
 18 19  1  0  0  0  0
 18 20  1  0  0  0  0
  5 21  2  0  0  0  0
 21 22  1  0  0  0  0
 22 23  1  0  0  0  0
 23 24  1  0  0  0  0
 24 25  2  0  0  0  0
 25  5  1  0  0  0  0
 22 26  2  0  0  0  0
 23 27  1  0  0  0  0
 27 28  1  0  0  0  0
 28 29  1  0  0  0  0
 29 30  1  0  0  0  0
M  END
> <From> 
www.bindingDB.org

> <BindingDB Reactant_set_id>
51091612

> <Ligand InChI>
InChI=1S/C20H25N5O4S/c1-5-21-19(28)23-20-22-15-11-14(17(27)25(12(2)3)18(15)30-20)13-6-7-24(8-9-29-4)16(26)10-13/h6-7,10-12H,5,8-9H2,1-4H3,(H2,21,22,23,28)

> <Ligand InChI Key>
BHGVYFYZPZRTFZ-UHFFFAOYSA-N

> <BindingDB MonomerID>
50447300

> <BindingDB Ligand Name>
CHEMBL3114207

> <Target Name Assigned by Curator or DataSource>
DNA gyrase subunit B

> <Target Source Organism According to Curator or DataSource>


> <Ki (nM)>


> <IC50 (nM)>
 5.0

> <Kd (nM)>


> <EC50 (nM)>


> <kon (M-1-s-1)>


> <koff (s-1)>


> <pH>


> <Temp C>


> <Curation/DataSource>
ChEMBL

> <Article DOI>
10.1016/j.bmcl.2013.12.080

> <PMID>
24405701

> <PubChem AID>


> <Patent Number>


> <Authors>
Kale, RR; Kale, MG; Waterson, D; Raichurkar, A; Hameed, SP; Manjunatha, MR; Kishore Reddy, BK; Malolanarasimhan, K; Shinde, V; Koushik, K; Jena, LK; Menasinakai, S; Humnabadkar, V; Madhavapeddi, P; Basavarajappa, H; Sharma, S; Nandishaiah, R; Mahesh Kumar, KN; Ganguly, S; Ahuja, V; Gaonkar, S; Naveen Kumar, CN; Ogg, D; Boriack-Sjodin, PA; Sambandamurthy, VK; de Sousa, SM; Ghorpade, SR

> <Institution>
AstraZeneca

> <Link to Ligand in BindingDB>
http://www.bindingdb.org/bind/chemsearch/marvin/MolStructure.jsp?monomerid=50447300

> <Link to Ligand-Target Pair in BindingDB>
http://www.bindingdb.org/jsp/dbsearch/PrimarySearch_ki.jsp?energyterm=kJ/mole&tag=pol&polymerid=50006452&target=DNA+gyrase+subunit+B&column=ki&startPg=0&Increment=50&submit=Search

> <Link to Ligand-Target Pair in BindingDB>
http://www.bindingdb.org/jsp/dbsearch/PrimarySearch_ki.jsp?energyterm=kJ/mole&tag=r21&monomerid=50447300&enzyme=DNA+gyrase+subunit+B&column=ki&startPg=0&Increment=50&submit=Search

> <Ligand HET ID in PDB>


> <PDB ID(s) for Ligand-Target Complex>


> <PubChem CID>
76321435

> <PubChem SID>
194945196

> <ChEBI ID of Ligand>


> <ChEMBL ID of Ligand>
CHEMBL3114207

> <DrugBank ID of Ligand>


> <IUPHAR_GRAC ID of Ligand>


> <KEGG ID of Ligand>


> <ZINC ID of Ligand>


> <Number of Protein Chains in Target (>1 implies a multichain complex)>
1

> <BindingDB Target Chain Sequence>
MAAQKNNAPKEYGADSITILEGLEAVRKRPGMYIGSTGERGLHHLIWEVVDNAVDEAMAGFATRVDVKIHADGSVEVRDDGRGIPVEMHATGMPTIDVVMTQLHAGGKFDGETYAVSGGLHGVGVSVVNALSTRLEATVLRDGYEWFQYYDRSVPGKLKQGGETKETGTTIRFWADPEIFETTDYNFETVARRLQEMAFLNKGLTIELTDERVTAEEVVDDVVKDTAEAPKTADEKAAEATGPSKVKHRVFHYPGGLVDYVKHINRTKTPIQQSIIDFDGKGPGHEVEIAMQWNAGYSESVHTFANTINTHEGGTHEEGFRAALTSVVNRYAKDKKLLKDKDPNLTGDDIREGLAAVISVKVAEPQFEGQTKTKLGNTEVKSFVQKICNEQLQHWFEANPAEAKTVVNKAVSSAQARIAARKARELVRRKSATDIGGLPGKLADCRSTDPSKSELYVVEGDSAGGSAKSGRDSMFQAILPLRGKIINVEKARIDRVLKNTEVQSIITALGTGIHDEFDISKLRYHKIVLMADADVDGQHISTLLLTLLFRFMKPLVENGHIFLAQPPLYKLKWQRSEPEFAYSDRERDGLLEAGRAAGKKINVDDGIQRYKGLGEMDAKELWETTMDPSVRVLRQVTLDDAAAADELFSILMGEDVEARRSFITRNAKDVRFLDV

> <PDB ID(s) of Target Chain>
4BAE

> <UniProt (SwissProt) Recommended Name of Target Chain>
DNA gyrase subunit B

> <UniProt (SwissProt) Entry Name of Target Chain>
GYRB_MYCSM

> <UniProt (SwissProt) Primary ID of Target Chain>
P0C559

> <UniProt (SwissProt) Secondary ID(s) of Target Chain>
P48355,Q59555

> <UniProt (SwissProt) Alternative ID(s) of Target Chain>


> <UniProt (TrEMBL) Submitted Name of Target Chain>


> <UniProt (TrEMBL) Entry Name of Target Chain>


> <UniProt (TrEMBL) Primary ID of Target Chain>


> <UniProt (TrEMBL) Secondary ID(s) of Target Chain>


> <UniProt (TrEMBL) Alternative ID(s) of Target Chain>


$$$$

  Mrv0541 11241420052D          

 27 29  0  0  0  0            999 V2000
   29.2774   -3.2874    0.0000 C   0  0  0  0  0  0  0  0  0  0  0  0
   29.2763   -4.1148    0.0000 C   0  0  0  0  0  0  0  0  0  0  0  0
   29.9911   -4.5276    0.0000 N   0  0  0  0  0  0  0  0  0  0  0  0
   29.9892   -2.8747    0.0000 C   0  0  0  0  0  0  0  0  0  0  0  0
   28.5629   -2.8751    0.0000 C   0  0  0  0  0  0  0  0  0  0  0  0
   28.5661   -2.0492    0.0000 C   0  0  0  0  0  0  0  0  0  0  0  0
   27.8524   -1.6369    0.0000 N   0  0  0  0  0  0  0  0  0  0  0  0
   27.1371   -2.0497    0.0000 C   0  0  0  0  0  0  0  0  0  0  0  0
   27.1399   -2.8789    0.0000 C   0  0  0  0  0  0  0  0  0  0  0  0
   27.8542   -3.2874    0.0000 C   0  0  0  0  0  0  0  0  0  0  0  0
   30.7046   -3.2837    0.0000 C   0  0  0  0  0  0  0  0  0  0  0  0
   30.7049   -4.1148    0.0000 C   0  0  0  0  0  0  0  0  0  0  0  0
   31.4954   -4.3714    0.0000 S   0  0  0  0  0  0  0  0  0  0  0  0
   31.9837   -3.6989    0.0000 C   0  0  0  0  0  0  0  0  0  0  0  0
   31.4950   -3.0268    0.0000 N   0  0  0  0  0  0  0  0  0  0  0  0
   32.8087   -3.6987    0.0000 N   0  0  0  0  0  0  0  0  0  0  0  0
   33.2209   -2.9840    0.0000 C   0  0  0  0  0  0  0  0  0  0  0  0
   34.0459   -2.9837    0.0000 O   0  0  0  0  0  0  0  0  0  0  0  0
   32.8082   -2.2697    0.0000 N   0  0  0  0  0  0  0  0  0  0  0  0
   33.2204   -1.5551    0.0000 C   0  0  0  0  0  0  0  0  0  0  0  0
   32.8077   -0.8407    0.0000 C   0  0  0  0  0  0  0  0  0  0  0  0
   28.5614   -4.5267    0.0000 O   0  0  0  0  0  0  0  0  0  0  0  0
   29.9913   -5.3526    0.0000 C   0  0  0  0  0  0  0  0  0  0  0  0
   29.2769   -5.7653    0.0000 C   0  0  0  0  0  0  0  0  0  0  0  0
   30.7059   -5.7649    0.0000 C   0  0  0  0  0  0  0  0  0  0  0  0
   26.4270   -3.2940    0.0000 O   0  0  0  0  0  0  0  0  0  0  0  0
   25.7110   -2.8843    0.0000 C   0  0  0  0  0  0  0  0  0  0  0  0
  1  2  1  0  0  0  0
  2  3  1  0  0  0  0
  3 12  1  0  0  0  0
 11  4  1  0  0  0  0
  4  1  2  0  0  0  0
  1  5  1  0  0  0  0
  5  6  2  0  0  0  0
  6  7  1  0  0  0  0
  7  8  2  0  0  0  0
  8  9  1  0  0  0  0
  9 10  2  0  0  0  0
 10  5  1  0  0  0  0
 11 12  2  0  0  0  0
 12 13  1  0  0  0  0
 13 14  1  0  0  0  0
 14 15  2  0  0  0  0
 15 11  1  0  0  0  0
 14 16  1  0  0  0  0
 16 17  1  0  0  0  0
 17 18  2  0  0  0  0
 17 19  1  0  0  0  0
 19 20  1  0  0  0  0
 20 21  1  0  0  0  0
  2 22  2  0  0  0  0
  3 23  1  0  0  0  0
 23 24  1  0  0  0  0
 23 25  1  0  0  0  0
  9 26  1  0  0  0  0
 26 27  1  0  0  0  0
M  END
> <From> 
www.bindingDB.org

> <BindingDB Reactant_set_id>
51091617

> <Ligand InChI>
InChI=1S/C18H21N5O3S/c1-5-20-17(25)22-18-21-14-7-13(11-6-12(26-4)9-19-8-11)15(24)23(10(2)3)16(14)27-18/h6-10H,5H2,1-4H3,(H2,20,21,22,25)

> <Ligand InChI Key>
KPKUEPBKGGGGLV-UHFFFAOYSA-N

> <BindingDB MonomerID>
50447305

> <BindingDB Ligand Name>
CHEMBL3114200

> <Target Name Assigned by Curator or DataSource>
DNA gyrase subunit B

> <Target Source Organism According to Curator or DataSource>


> <Ki (nM)>


> <IC50 (nM)>
 6.0

> <Kd (nM)>


> <EC50 (nM)>


> <kon (M-1-s-1)>


> <koff (s-1)>


> <pH>


> <Temp C>


> <Curation/DataSource>
ChEMBL

> <Article DOI>
10.1016/j.bmcl.2013.12.080

> <PMID>
24405701

> <PubChem AID>


> <Patent Number>


> <Authors>
Kale, RR; Kale, MG; Waterson, D; Raichurkar, A; Hameed, SP; Manjunatha, MR; Kishore Reddy, BK; Malolanarasimhan, K; Shinde, V; Koushik, K; Jena, LK; Menasinakai, S; Humnabadkar, V; Madhavapeddi, P; Basavarajappa, H; Sharma, S; Nandishaiah, R; Mahesh Kumar, KN; Ganguly, S; Ahuja, V; Gaonkar, S; Naveen Kumar, CN; Ogg, D; Boriack-Sjodin, PA; Sambandamurthy, VK; de Sousa, SM; Ghorpade, SR

> <Institution>
AstraZeneca

> <Link to Ligand in BindingDB>
http://www.bindingdb.org/bind/chemsearch/marvin/MolStructure.jsp?monomerid=50447305

> <Link to Ligand-Target Pair in BindingDB>
http://www.bindingdb.org/jsp/dbsearch/PrimarySearch_ki.jsp?energyterm=kJ/mole&tag=pol&polymerid=50006452&target=DNA+gyrase+subunit+B&column=ki&startPg=0&Increment=50&submit=Search

> <Link to Ligand-Target Pair in BindingDB>
http://www.bindingdb.org/jsp/dbsearch/PrimarySearch_ki.jsp?energyterm=kJ/mole&tag=r21&monomerid=50447305&enzyme=DNA+gyrase+subunit+B&column=ki&startPg=0&Increment=50&submit=Search

> <Ligand HET ID in PDB>


> <PDB ID(s) for Ligand-Target Complex>


> <PubChem CID>
76328606

> <PubChem SID>
194945201

> <ChEBI ID of Ligand>


> <ChEMBL ID of Ligand>
CHEMBL3114200

> <DrugBank ID of Ligand>


> <IUPHAR_GRAC ID of Ligand>


> <KEGG ID of Ligand>


> <ZINC ID of Ligand>


> <Number of Protein Chains in Target (>1 implies a multichain complex)>
1

> <BindingDB Target Chain Sequence>
MAAQKNNAPKEYGADSITILEGLEAVRKRPGMYIGSTGERGLHHLIWEVVDNAVDEAMAGFATRVDVKIHADGSVEVRDDGRGIPVEMHATGMPTIDVVMTQLHAGGKFDGETYAVSGGLHGVGVSVVNALSTRLEATVLRDGYEWFQYYDRSVPGKLKQGGETKETGTTIRFWADPEIFETTDYNFETVARRLQEMAFLNKGLTIELTDERVTAEEVVDDVVKDTAEAPKTADEKAAEATGPSKVKHRVFHYPGGLVDYVKHINRTKTPIQQSIIDFDGKGPGHEVEIAMQWNAGYSESVHTFANTINTHEGGTHEEGFRAALTSVVNRYAKDKKLLKDKDPNLTGDDIREGLAAVISVKVAEPQFEGQTKTKLGNTEVKSFVQKICNEQLQHWFEANPAEAKTVVNKAVSSAQARIAARKARELVRRKSATDIGGLPGKLADCRSTDPSKSELYVVEGDSAGGSAKSGRDSMFQAILPLRGKIINVEKARIDRVLKNTEVQSIITALGTGIHDEFDISKLRYHKIVLMADADVDGQHISTLLLTLLFRFMKPLVENGHIFLAQPPLYKLKWQRSEPEFAYSDRERDGLLEAGRAAGKKINVDDGIQRYKGLGEMDAKELWETTMDPSVRVLRQVTLDDAAAADELFSILMGEDVEARRSFITRNAKDVRFLDV

> <PDB ID(s) of Target Chain>
4BAE

> <UniProt (SwissProt) Recommended Name of Target Chain>
DNA gyrase subunit B

> <UniProt (SwissProt) Entry Name of Target Chain>
GYRB_MYCSM

> <UniProt (SwissProt) Primary ID of Target Chain>
P0C559

> <UniProt (SwissProt) Secondary ID(s) of Target Chain>
P48355,Q59555

> <UniProt (SwissProt) Alternative ID(s) of Target Chain>


> <UniProt (TrEMBL) Submitted Name of Target Chain>


> <UniProt (TrEMBL) Entry Name of Target Chain>


> <UniProt (TrEMBL) Primary ID of Target Chain>


> <UniProt (TrEMBL) Secondary ID(s) of Target Chain>


> <UniProt (TrEMBL) Alternative ID(s) of Target Chain>


$$$$

  SciTegic12201612272D

 28 31  0  0  0  0            999 V2000
    1.3751    3.8801    0.0000 S   0  0
    2.1749    2.6315    0.0000 C   0  0
    3.6243    2.9682    0.0000 N   0  0
    3.7308    4.4644    0.0000 C   0  0
    2.3406    5.0280    0.0000 C   0  0
    5.0039    5.2543    0.0000 C   0  0
    4.9656    6.4536    0.0000 O   0  0
    6.3272    4.5462    0.0000 O   0  0
    2.9755    7.5994    0.0000 C   0  0
    1.9793    6.4846    0.0000 C   0  0
    0.5081    6.7858    0.0000 C   0  0
    0.0384    8.2104    0.0000 C   0  0
    1.0373    9.3295    0.0000 C   0  0
    2.5059    9.0239    0.0000 N   0  0
    0.2917   -0.7475    0.0000 C   0  0
    0.2917    0.7475    0.0000 C   0  0
   -1.0028    1.5132    0.0000 C   0  0
   -2.3155    0.7475    0.0000 C   0  0
   -2.3155   -0.7475    0.0000 C   0  0
   -1.0028   -1.5132    0.0000 N   0  0
    2.5889    0.0182    0.0000 N   0  0
    1.7138   -1.2033    0.0000 N   0  0
    1.7138    1.2033    0.0000 C   0  0
   -0.9971   -3.0138    0.0000 C   0  0
   -2.2935   -3.7700    0.0000 C   0  0
   -2.2889   -4.9699    0.0000 C   0  0
   -3.3560   -1.3452    0.0000 O   0  0
    7.3469    5.1788    0.0000 C   0  0
  1  2  1  0
  2  3  2  0
  3  4  1  0
  4  5  2  0
  1  5  1  0
  6  7  2  0
  6  8  1  0
  4  6  1  0
  9 10  1  0
 10 11  2  0
 11 12  1  0
 12 13  2  0
 13 14  1  0
  9 14  2  0
  5 10  1  0
 15 16  2  0
 16 17  1  0
 17 18  2  0
 18 19  1  0
 19 20  1  0
 15 20  1  0
 21 22  1  0
 21 23  2  0
 15 22  1  0
 16 23  1  0
 24 25  1  0
 25 26  1  0
 20 24  1  0
 19 27  2  0
  2 23  1  0
  8 28  1  0
M  END
> <From> 
www.bindingDB.org

> <BindingDB Reactant_set_id>
50498686

> <Ligand InChI>
InChI=1S/C19H17N5O3S/c1-3-9-24-13(25)7-6-12-14(22-23-17(12)24)18-21-15(19(26)27-2)16(28-18)11-5-4-8-20-10-11/h4-8,10H,3,9H2,1-2H3,(H,22,23)

> <Ligand InChI Key>
PBOWQRKUMWKGQC-UHFFFAOYSA-N

> <BindingDB MonomerID>
50173875

> <BindingDB Ligand Name>
CHEMBL3808756

> <Target Name Assigned by Curator or DataSource>
DNA gyrase

> <Target Source Organism According to Curator or DataSource>
Staphylococcus aureus

> <Ki (nM)>


> <IC50 (nM)>
 6.0

> <Kd (nM)>


> <EC50 (nM)>


> <kon (M-1-s-1)>


> <koff (s-1)>


> <pH>


> <Temp C>


> <Curation/DataSource>
ChEMBL

> <Article DOI>
10.1021/acsmedchemlett.5b00368

> <PMID>
27096044

> <PubChem AID>


> <Patent Number>


> <Authors>
Cross, JB; Zhang, J; Yang, Q; Mesleh, MF; Romero, JA; Wang, B; Bevan, D; Poutsiaka, KM; Epie, F; Moy, T; Daniel, A; Shotwell, J; Chamberlain, B; Carter, N; Andersen, O; Barker, J; Ryan, MD; Metcalf, CA; Silverman, J; Nguyen, K; Lippa, B; Dolle, RE

> <Institution>
Cubist Pharmaceuticals, Inc.

> <Link to Ligand in BindingDB>
http://www.bindingdb.org/bind/chemsearch/marvin/MolStructure.jsp?monomerid=50173875

> <Link to Ligand-Target Pair in BindingDB>
http://www.bindingdb.org/jsp/dbsearch/PrimarySearch_ki.jsp?energyterm=kJ/mole&tag=pol&polymerid=2626&target=DNA+gyrase&column=ki&startPg=0&Increment=50&submit=Search

> <Link to Ligand-Target Pair in BindingDB>
http://www.bindingdb.org/jsp/dbsearch/PrimarySearch_ki.jsp?energyterm=kJ/mole&tag=r21&monomerid=50173875&enzyme=DNA+gyrase&column=ki&startPg=0&Increment=50&submit=Search

> <Ligand HET ID in PDB>


> <PDB ID(s) for Ligand-Target Complex>


> <PubChem CID>
127045545

> <PubChem SID>
346548894

> <ChEBI ID of Ligand>


> <ChEMBL ID of Ligand>


> <DrugBank ID of Ligand>


> <IUPHAR_GRAC ID of Ligand>


> <KEGG ID of Ligand>


> <ZINC ID of Ligand>


> <Number of Protein Chains in Target (>1 implies a multichain complex)>
1

> <BindingDB Target Chain Sequence>
MVTALSDVNNTDNYGAGQIQVLEGLEAVRKRPGMYIGSTSERGLHHLVWEIVDNSIDEALAGYANQIEVVIEKDNWIKVTDNGRGIPVDIQEKMGRPAVEVILTVLHAGGKFGGGGYKVSGGLHGVGSSVVNALSQDLEVYVHRNETIYHQAYKKGVPQFDLKEVGTTDKTGTVIRFKADGEIFTETTVYNYETLQQRIRELAFLNKGIQITLRDERDEENVREDSYHYEGGIKSYVELLNENKEPIHDEPIYIHQSKDDIEVEIAIQYNSGYATNLLTYANNIHTYEGGTHEDGFKRALTRVLNSYGLSSKIMKEEKDRLSGEDTREGMTAIISIKHGDPQFEGQTKTKLGNSEVRQVVDKLFSEHFERFLYENPQVARTVVEKGIMAARARVAAKKAREVTRRKSALDVASLPGKLADCSSKSPEECEIFLVEGDSAGGSTKSGRDSRTQAILPLRGKILNVEKARLDRILNNNEIRQMITAFGTGIGGDFDLAKARYHKIVIMTDADVDGAHIRTLLLTFFYRFMRPLIEAGYVYIAQPPLYKLTQGKQKYYVYNDRELDKLKSELNPTPKWSIARYKGLGEMNADQLWETTMNPEHRALLQVKLEDAIEADQTFEMLMGDVVENRRQFIEDNAVYANLDF

> <PDB ID(s) of Target Chain>


> <UniProt (SwissProt) Recommended Name of Target Chain>
DNA gyrase subunit B

> <UniProt (SwissProt) Entry Name of Target Chain>
GYRB_STAAU

> <UniProt (SwissProt) Primary ID of Target Chain>
P0A0K8

> <UniProt (SwissProt) Secondary ID(s) of Target Chain>
P20832

> <UniProt (SwissProt) Alternative ID(s) of Target Chain>


> <UniProt (TrEMBL) Submitted Name of Target Chain>


> <UniProt (TrEMBL) Entry Name of Target Chain>


> <UniProt (TrEMBL) Primary ID of Target Chain>


> <UniProt (TrEMBL) Secondary ID(s) of Target Chain>


> <UniProt (TrEMBL) Alternative ID(s) of Target Chain>


$$$$

  SciTegic12201612272D

 24 27  0  0  0  0            999 V2000
    0.2917   -0.7475    0.0000 C   0  0
    0.2917    0.7475    0.0000 C   0  0
   -1.0028    1.5132    0.0000 C   0  0
   -2.3155    0.7475    0.0000 C   0  0
   -2.3155   -0.7475    0.0000 C   0  0
   -1.0028   -1.5132    0.0000 N   0  0
    2.5889    0.0182    0.0000 N   0  0
    1.7138   -1.2033    0.0000 N   0  0
    1.7138    1.2033    0.0000 C   0  0
   -3.3560   -1.3452    0.0000 O   0  0
    3.6243    2.9682    0.0000 S   0  0
    3.7308    4.4645    0.0000 C   0  0
    2.3406    5.0280    0.0000 N   0  0
    1.3751    3.8801    0.0000 C   0  0
    2.1749    2.6315    0.0000 C   0  0
    6.3724    4.6552    0.0000 C   0  0
    5.0044    5.2582    0.0000 C   0  0
    4.8363    6.7505    0.0000 C   0  0
    6.0460    7.6374    0.0000 C   0  0
    7.4189    7.0332    0.0000 C   0  0
    7.5821    5.5421    0.0000 N   0  0
   -0.9971   -3.0138    0.0000 C   0  0
   -2.2935   -3.7700    0.0000 C   0  0
   -2.2889   -4.9699    0.0000 C   0  0
  1  2  2  0
  2  3  1  0
  3  4  2  0
  4  5  1  0
  5  6  1  0
  1  6  1  0
  7  8  1  0
  7  9  2  0
  1  8  1  0
  2  9  1  0
  5 10  2  0
 11 12  1  0
 12 13  2  0
 13 14  1  0
 14 15  2  0
 11 15  1  0
 16 17  1  0
 17 18  2  0
 18 19  1  0
 19 20  2  0
 20 21  1  0
 16 21  2  0
 12 17  1  0
  9 15  1  0
 22 23  1  0
 23 24  1  0
  6 22  1  0
M  END
> <From> 
www.bindingDB.org

> <BindingDB Reactant_set_id>
50498697

> <Ligand InChI>
InChI=1S/C17H15N5OS/c1-2-8-22-14(23)6-5-12-15(20-21-16(12)22)13-10-19-17(24-13)11-4-3-7-18-9-11/h3-7,9-10H,2,8H2,1H3,(H,20,21)

> <Ligand InChI Key>
VOOCDNWLHBWIJZ-UHFFFAOYSA-N

> <BindingDB MonomerID>
50173879

> <BindingDB Ligand Name>
CHEMBL3810359

> <Target Name Assigned by Curator or DataSource>
DNA gyrase

> <Target Source Organism According to Curator or DataSource>
Staphylococcus aureus

> <Ki (nM)>


> <IC50 (nM)>
 6.0

> <Kd (nM)>


> <EC50 (nM)>


> <kon (M-1-s-1)>


> <koff (s-1)>


> <pH>


> <Temp C>


> <Curation/DataSource>
ChEMBL

> <Article DOI>
10.1021/acsmedchemlett.5b00368

> <PMID>
27096044

> <PubChem AID>


> <Patent Number>


> <Authors>
Cross, JB; Zhang, J; Yang, Q; Mesleh, MF; Romero, JA; Wang, B; Bevan, D; Poutsiaka, KM; Epie, F; Moy, T; Daniel, A; Shotwell, J; Chamberlain, B; Carter, N; Andersen, O; Barker, J; Ryan, MD; Metcalf, CA; Silverman, J; Nguyen, K; Lippa, B; Dolle, RE

> <Institution>
Cubist Pharmaceuticals, Inc.

> <Link to Ligand in BindingDB>
http://www.bindingdb.org/bind/chemsearch/marvin/MolStructure.jsp?monomerid=50173879

> <Link to Ligand-Target Pair in BindingDB>
http://www.bindingdb.org/jsp/dbsearch/PrimarySearch_ki.jsp?energyterm=kJ/mole&tag=pol&polymerid=2626&target=DNA+gyrase&column=ki&startPg=0&Increment=50&submit=Search

> <Link to Ligand-Target Pair in BindingDB>
http://www.bindingdb.org/jsp/dbsearch/PrimarySearch_ki.jsp?energyterm=kJ/mole&tag=r21&monomerid=50173879&enzyme=DNA+gyrase&column=ki&startPg=0&Increment=50&submit=Search

> <Ligand HET ID in PDB>
57X

> <PDB ID(s) for Ligand-Target Complex>
5D7D

> <PubChem CID>
71721528

> <PubChem SID>
346548898

> <ChEBI ID of Ligand>


> <ChEMBL ID of Ligand>


> <DrugBank ID of Ligand>


> <IUPHAR_GRAC ID of Ligand>


> <KEGG ID of Ligand>


> <ZINC ID of Ligand>


> <Number of Protein Chains in Target (>1 implies a multichain complex)>
1

> <BindingDB Target Chain Sequence>
MVTALSDVNNTDNYGAGQIQVLEGLEAVRKRPGMYIGSTSERGLHHLVWEIVDNSIDEALAGYANQIEVVIEKDNWIKVTDNGRGIPVDIQEKMGRPAVEVILTVLHAGGKFGGGGYKVSGGLHGVGSSVVNALSQDLEVYVHRNETIYHQAYKKGVPQFDLKEVGTTDKTGTVIRFKADGEIFTETTVYNYETLQQRIRELAFLNKGIQITLRDERDEENVREDSYHYEGGIKSYVELLNENKEPIHDEPIYIHQSKDDIEVEIAIQYNSGYATNLLTYANNIHTYEGGTHEDGFKRALTRVLNSYGLSSKIMKEEKDRLSGEDTREGMTAIISIKHGDPQFEGQTKTKLGNSEVRQVVDKLFSEHFERFLYENPQVARTVVEKGIMAARARVAAKKAREVTRRKSALDVASLPGKLADCSSKSPEECEIFLVEGDSAGGSTKSGRDSRTQAILPLRGKILNVEKARLDRILNNNEIRQMITAFGTGIGGDFDLAKARYHKIVIMTDADVDGAHIRTLLLTFFYRFMRPLIEAGYVYIAQPPLYKLTQGKQKYYVYNDRELDKLKSELNPTPKWSIARYKGLGEMNADQLWETTMNPEHRALLQVKLEDAIEADQTFEMLMGDVVENRRQFIEDNAVYANLDF

> <PDB ID(s) of Target Chain>


> <UniProt (SwissProt) Recommended Name of Target Chain>
DNA gyrase subunit B

> <UniProt (SwissProt) Entry Name of Target Chain>
GYRB_STAAU

> <UniProt (SwissProt) Primary ID of Target Chain>
P0A0K8

> <UniProt (SwissProt) Secondary ID(s) of Target Chain>
P20832

> <UniProt (SwissProt) Alternative ID(s) of Target Chain>


> <UniProt (TrEMBL) Submitted Name of Target Chain>


> <UniProt (TrEMBL) Entry Name of Target Chain>


> <UniProt (TrEMBL) Primary ID of Target Chain>


> <UniProt (TrEMBL) Secondary ID(s) of Target Chain>


> <UniProt (TrEMBL) Alternative ID(s) of Target Chain>


$$$$

  SciTegic09291413392D

 29 32  0  0  0  0            999 V2000
    1.4940   -3.2234    0.0000 C   0  0
    3.6182   -1.9934    0.0000 C   0  0
    3.6170   -2.8130    0.0000 C   0  0
    4.3251   -3.2219    0.0000 N   0  0
    4.3233   -1.5846    0.0000 C   0  0
    5.0319   -1.9898    0.0000 C   0  0
    5.0367   -2.8130    0.0000 C   0  0
    5.8211   -3.0628    0.0000 S   0  0
    6.3011   -2.3940    0.0000 C   0  0
    5.8133   -1.7309    0.0000 N   0  0
    2.9124   -1.5852    0.0000 C   0  0
    2.9136   -0.7669    0.0000 C   0  0
    2.2066   -0.3585    0.0000 N   0  0
    1.4980   -0.7673    0.0000 C   0  0
    1.5008   -1.5887    0.0000 C   0  0
    7.1183   -2.3891    0.0000 N   0  0
    7.5227   -1.6790    0.0000 C   0  0
    8.3399   -1.6742    0.0000 N   0  0
    7.1099   -0.9737    0.0000 O   0  0
    8.7443   -0.9641    0.0000 C   0  0
    9.5615   -0.9593    0.0000 C   0  0
    2.2022   -1.9946    0.0000 C   0  0
    2.9090   -3.2210    0.0000 O   0  0
    2.2016   -2.8118    0.0000 C   0  0
    0.7452   -2.8929    0.0000 C   0  0
    0.1994   -3.5030    0.0000 C   0  0
    0.6110   -4.2106    0.0000 O   0  0
    1.4111   -4.0377    0.0000 C   0  0
    0.7936   -1.9982    0.0000 F   0  0
  2  3  2  0
  3  4  1  0
  4  7  2  0
  6  5  2  0
  5  2  1  0
  6  7  1  0
  7  8  1  0
  8  9  1  0
  9 10  2  0
 10  6  1  0
 11 12  2  0
 12 13  1  0
 13 14  2  0
 14 15  1  0
 15 22  2  0
 22 11  1  0
  2 11  1  0
  9 16  1  0
 16 17  1  0
 17 18  1  0
 17 19  2  0
 18 20  1  0
 20 21  1  0
  3 23  1  0
 23 24  1  0
 24  1  1  0
  1 25  1  0
 25 26  1  0
 26 27  1  0
 27 28  1  0
 28  1  1  0
 15 29  1  0
M  END
> <From> 
www.bindingDB.org

> <BindingDB Reactant_set_id>
50089922

> <Ligand InChI>
InChI=1S/C19H20FN5O3S/c1-2-22-18(26)25-19-23-15-6-14(12-5-13(20)8-21-7-12)16(24-17(15)29-19)28-10-11-3-4-27-9-11/h5-8,11H,2-4,9-10H2,1H3,(H2,22,23,25,26)

> <Ligand InChI Key>
BMXPGYUFWDJCDC-UHFFFAOYSA-N

> <BindingDB MonomerID>
50010362

> <BindingDB Ligand Name>
CHEMBL3263604

> <Target Name Assigned by Curator or DataSource>
DNA gyrase subunit B

> <Target Source Organism According to Curator or DataSource>


> <Ki (nM)>


> <IC50 (nM)>
 7.0

> <Kd (nM)>


> <EC50 (nM)>


> <kon (M-1-s-1)>


> <koff (s-1)>


> <pH>


> <Temp C>


> <Curation/DataSource>
ChEMBL

> <Article DOI>
10.1021/jm401268f

> <PMID>
24088190

> <PubChem AID>


> <Patent Number>


> <Authors>
Ahuja, V; Ahuja, V; Basavarajappa, H; Basavarajappa, H; P, SH; P, SH; Boriack-Sjodin, PA; Boriack-Sjodin, PA; McKinney, D; McKinney, D; Ganguly, S; Ganguly, S; Kranthi, U; Kranthi, U; Gaonkar, S; Gaonkar, S; Jena, Lk; Jena, Lk; Ghorpade, SR; Ghorpade, SR; Ghosh, A; Ghosh, A; Barde, S; Barde, S; Kale, MG; Kale, MG; Koushik, K; Koushik, K; Kumar, CN; Kumar, CN; Manjunatha, MR; Manjunatha, MR; Ogg, D; Ogg, D; Panduga, V; Panduga, V; Ramya, VK; Ramya, VK; Reddy, J; Reddy, J; Kumar, KN; Kumar, KN; Giridhar, J; Giridhar, J; Rudrapatna, S; Rudrapatna, S; Sharma, S; Sharma, S; Tucker, JA; Tucker, JA; Vachaspati, P; Vachaspati, P; Waterson, D; Waterson, D; de Sousa, SM; de Sousa, SM

> <Institution>
AstraZeneca India Pvt. Ltd.

> <Link to Ligand in BindingDB>
http://www.bindingdb.org/bind/chemsearch/marvin/MolStructure.jsp?monomerid=50010362

> <Link to Ligand-Target Pair in BindingDB>
http://www.bindingdb.org/jsp/dbsearch/PrimarySearch_ki.jsp?energyterm=kJ/mole&tag=pol&polymerid=50006452&target=DNA+gyrase+subunit+B&column=ki&startPg=0&Increment=50&submit=Search

> <Link to Ligand-Target Pair in BindingDB>
http://www.bindingdb.org/jsp/dbsearch/PrimarySearch_ki.jsp?energyterm=kJ/mole&tag=r21&monomerid=50010362&enzyme=DNA+gyrase+subunit+B&column=ki&startPg=0&Increment=50&submit=Search

> <Ligand HET ID in PDB>


> <PDB ID(s) for Ligand-Target Complex>


> <PubChem CID>
59352845

> <PubChem SID>
103923176

> <ChEBI ID of Ligand>


> <ChEMBL ID of Ligand>
CHEMBL3263604

> <DrugBank ID of Ligand>


> <IUPHAR_GRAC ID of Ligand>


> <KEGG ID of Ligand>


> <ZINC ID of Ligand>
ZINC13446877

> <Number of Protein Chains in Target (>1 implies a multichain complex)>
1

> <BindingDB Target Chain Sequence>
MAAQKNNAPKEYGADSITILEGLEAVRKRPGMYIGSTGERGLHHLIWEVVDNAVDEAMAGFATRVDVKIHADGSVEVRDDGRGIPVEMHATGMPTIDVVMTQLHAGGKFDGETYAVSGGLHGVGVSVVNALSTRLEATVLRDGYEWFQYYDRSVPGKLKQGGETKETGTTIRFWADPEIFETTDYNFETVARRLQEMAFLNKGLTIELTDERVTAEEVVDDVVKDTAEAPKTADEKAAEATGPSKVKHRVFHYPGGLVDYVKHINRTKTPIQQSIIDFDGKGPGHEVEIAMQWNAGYSESVHTFANTINTHEGGTHEEGFRAALTSVVNRYAKDKKLLKDKDPNLTGDDIREGLAAVISVKVAEPQFEGQTKTKLGNTEVKSFVQKICNEQLQHWFEANPAEAKTVVNKAVSSAQARIAARKARELVRRKSATDIGGLPGKLADCRSTDPSKSELYVVEGDSAGGSAKSGRDSMFQAILPLRGKIINVEKARIDRVLKNTEVQSIITALGTGIHDEFDISKLRYHKIVLMADADVDGQHISTLLLTLLFRFMKPLVENGHIFLAQPPLYKLKWQRSEPEFAYSDRERDGLLEAGRAAGKKINVDDGIQRYKGLGEMDAKELWETTMDPSVRVLRQVTLDDAAAADELFSILMGEDVEARRSFITRNAKDVRFLDV

> <PDB ID(s) of Target Chain>
4BAE

> <UniProt (SwissProt) Recommended Name of Target Chain>
DNA gyrase subunit B

> <UniProt (SwissProt) Entry Name of Target Chain>
GYRB_MYCSM

> <UniProt (SwissProt) Primary ID of Target Chain>
P0C559

> <UniProt (SwissProt) Secondary ID(s) of Target Chain>
P48355,Q59555

> <UniProt (SwissProt) Alternative ID(s) of Target Chain>


> <UniProt (TrEMBL) Submitted Name of Target Chain>


> <UniProt (TrEMBL) Entry Name of Target Chain>


> <UniProt (TrEMBL) Primary ID of Target Chain>


> <UniProt (TrEMBL) Secondary ID(s) of Target Chain>


> <UniProt (TrEMBL) Alternative ID(s) of Target Chain>


$$$$

  SciTegic09291413392D

 29 32  0  0  0  0            999 V2000
    0.6438   -8.2215    0.0000 C   0  0
    2.7680   -6.9915    0.0000 C   0  0
    2.7668   -7.8110    0.0000 C   0  0
    3.4749   -8.2200    0.0000 N   0  0
    3.4731   -6.5826    0.0000 C   0  0
    4.1817   -6.9879    0.0000 C   0  0
    4.1865   -7.8111    0.0000 C   0  0
    4.9709   -8.0609    0.0000 S   0  0
    5.4509   -7.3920    0.0000 C   0  0
    4.9631   -6.7290    0.0000 N   0  0
    2.0622   -6.5832    0.0000 C   0  0
    2.0634   -5.7649    0.0000 C   0  0
    1.3564   -5.3566    0.0000 N   0  0
    0.6478   -5.7654    0.0000 C   0  0
    0.6506   -6.5868    0.0000 N   0  0
    6.2681   -7.3872    0.0000 N   0  0
    6.6725   -6.6771    0.0000 C   0  0
    7.4897   -6.6723    0.0000 N   0  0
    6.2597   -5.9718    0.0000 O   0  0
    7.8941   -5.9622    0.0000 C   0  0
    8.7112   -5.9573    0.0000 C   0  0
    1.3520   -6.9927    0.0000 C   0  0
    2.0588   -8.2191    0.0000 O   0  0
    1.3514   -7.8099    0.0000 C   0  0
   -0.1096   -7.8910    0.0000 C   0  0
   -0.6534   -8.5011    0.0000 C   0  0
   -0.2395   -9.2087    0.0000 O   0  0
    0.5608   -9.0358    0.0000 C   0  0
   -0.0633   -5.3579    0.0000 C   0  0
  2  3  2  0
  3  4  1  0
  4  7  2  0
  6  5  2  0
  5  2  1  0
  6  7  1  0
  7  8  1  0
  8  9  1  0
  9 10  2  0
 10  6  1  0
 11 12  2  0
 12 13  1  0
 13 14  2  0
 14 15  1  0
 15 22  2  0
 22 11  1  0
  2 11  1  0
  9 16  1  0
 16 17  1  0
 17 18  1  0
 17 19  2  0
 18 20  1  0
 20 21  1  0
  3 23  1  0
 23 24  1  0
 24  1  1  0
  1 25  1  0
 25 26  1  0
 26 27  1  0
 27 28  1  0
 28  1  1  0
 14 29  1  0
M  END
> <From> 
www.bindingDB.org

> <BindingDB Reactant_set_id>
50089927

> <Ligand InChI>
InChI=1S/C19H22N6O3S/c1-3-20-18(26)25-19-23-15-6-14(13-7-21-11(2)22-8-13)16(24-17(15)29-19)28-10-12-4-5-27-9-12/h6-8,12H,3-5,9-10H2,1-2H3,(H2,20,23,25,26)

> <Ligand InChI Key>
FVWSCKNJICVDQN-UHFFFAOYSA-N

> <BindingDB MonomerID>
50010365

> <BindingDB Ligand Name>
CHEMBL3263607

> <Target Name Assigned by Curator or DataSource>
DNA gyrase subunit B

> <Target Source Organism According to Curator or DataSource>


> <Ki (nM)>


> <IC50 (nM)>
 7.0

> <Kd (nM)>


> <EC50 (nM)>


> <kon (M-1-s-1)>


> <koff (s-1)>


> <pH>


> <Temp C>


> <Curation/DataSource>
ChEMBL

> <Article DOI>
10.1021/jm401268f

> <PMID>
24088190

> <PubChem AID>


> <Patent Number>


> <Authors>
Ahuja, V; Ahuja, V; Basavarajappa, H; Basavarajappa, H; P, SH; P, SH; Boriack-Sjodin, PA; Boriack-Sjodin, PA; McKinney, D; McKinney, D; Ganguly, S; Ganguly, S; Kranthi, U; Kranthi, U; Gaonkar, S; Gaonkar, S; Jena, Lk; Jena, Lk; Ghorpade, SR; Ghorpade, SR; Ghosh, A; Ghosh, A; Barde, S; Barde, S; Kale, MG; Kale, MG; Koushik, K; Koushik, K; Kumar, CN; Kumar, CN; Manjunatha, MR; Manjunatha, MR; Ogg, D; Ogg, D; Panduga, V; Panduga, V; Ramya, VK; Ramya, VK; Reddy, J; Reddy, J; Kumar, KN; Kumar, KN; Giridhar, J; Giridhar, J; Rudrapatna, S; Rudrapatna, S; Sharma, S; Sharma, S; Tucker, JA; Tucker, JA; Vachaspati, P; Vachaspati, P; Waterson, D; Waterson, D; de Sousa, SM; de Sousa, SM

> <Institution>
AstraZeneca India Pvt. Ltd.

> <Link to Ligand in BindingDB>
http://www.bindingdb.org/bind/chemsearch/marvin/MolStructure.jsp?monomerid=50010365

> <Link to Ligand-Target Pair in BindingDB>
http://www.bindingdb.org/jsp/dbsearch/PrimarySearch_ki.jsp?energyterm=kJ/mole&tag=pol&polymerid=50006452&target=DNA+gyrase+subunit+B&column=ki&startPg=0&Increment=50&submit=Search

> <Link to Ligand-Target Pair in BindingDB>
http://www.bindingdb.org/jsp/dbsearch/PrimarySearch_ki.jsp?energyterm=kJ/mole&tag=r21&monomerid=50010365&enzyme=DNA+gyrase+subunit+B&column=ki&startPg=0&Increment=50&submit=Search

> <Ligand HET ID in PDB>


> <PDB ID(s) for Ligand-Target Complex>


> <PubChem CID>
72713306

> <PubChem SID>
103923179

> <ChEBI ID of Ligand>


> <ChEMBL ID of Ligand>
CHEMBL3263607

> <DrugBank ID of Ligand>


> <IUPHAR_GRAC ID of Ligand>


> <KEGG ID of Ligand>


> <ZINC ID of Ligand>
ZINC13446917

> <Number of Protein Chains in Target (>1 implies a multichain complex)>
1

> <BindingDB Target Chain Sequence>
MAAQKNNAPKEYGADSITILEGLEAVRKRPGMYIGSTGERGLHHLIWEVVDNAVDEAMAGFATRVDVKIHADGSVEVRDDGRGIPVEMHATGMPTIDVVMTQLHAGGKFDGETYAVSGGLHGVGVSVVNALSTRLEATVLRDGYEWFQYYDRSVPGKLKQGGETKETGTTIRFWADPEIFETTDYNFETVARRLQEMAFLNKGLTIELTDERVTAEEVVDDVVKDTAEAPKTADEKAAEATGPSKVKHRVFHYPGGLVDYVKHINRTKTPIQQSIIDFDGKGPGHEVEIAMQWNAGYSESVHTFANTINTHEGGTHEEGFRAALTSVVNRYAKDKKLLKDKDPNLTGDDIREGLAAVISVKVAEPQFEGQTKTKLGNTEVKSFVQKICNEQLQHWFEANPAEAKTVVNKAVSSAQARIAARKARELVRRKSATDIGGLPGKLADCRSTDPSKSELYVVEGDSAGGSAKSGRDSMFQAILPLRGKIINVEKARIDRVLKNTEVQSIITALGTGIHDEFDISKLRYHKIVLMADADVDGQHISTLLLTLLFRFMKPLVENGHIFLAQPPLYKLKWQRSEPEFAYSDRERDGLLEAGRAAGKKINVDDGIQRYKGLGEMDAKELWETTMDPSVRVLRQVTLDDAAAADELFSILMGEDVEARRSFITRNAKDVRFLDV

> <PDB ID(s) of Target Chain>
4BAE

> <UniProt (SwissProt) Recommended Name of Target Chain>
DNA gyrase subunit B

> <UniProt (SwissProt) Entry Name of Target Chain>
GYRB_MYCSM

> <UniProt (SwissProt) Primary ID of Target Chain>
P0C559

> <UniProt (SwissProt) Secondary ID(s) of Target Chain>
P48355,Q59555

> <UniProt (SwissProt) Alternative ID(s) of Target Chain>


> <UniProt (TrEMBL) Submitted Name of Target Chain>


> <UniProt (TrEMBL) Entry Name of Target Chain>


> <UniProt (TrEMBL) Primary ID of Target Chain>


> <UniProt (TrEMBL) Secondary ID(s) of Target Chain>


> <UniProt (TrEMBL) Alternative ID(s) of Target Chain>


$$$$

  SciTegic12201612272D

 31 35  0  0  0  0            999 V2000
    0.2917   -0.7475    0.0000 C   0  0
    0.2917    0.7475    0.0000 C   0  0
   -1.0028    1.5132    0.0000 C   0  0
   -2.3155    0.7475    0.0000 C   0  0
   -2.3155   -0.7475    0.0000 C   0  0
   -1.0028   -1.5132    0.0000 N   0  0
    2.5889    0.0182    0.0000 N   0  0
    1.7138   -1.2033    0.0000 N   0  0
    1.7138    1.2033    0.0000 C   0  0
   -3.3560   -1.3452    0.0000 O   0  0
   -0.9971   -3.0138    0.0000 C   0  0
   -2.2935   -3.7700    0.0000 C   0  0
   -2.2889   -4.9699    0.0000 C   0  0
    3.6243    2.9682    0.0000 S   0  0
    3.7308    4.4645    0.0000 C   0  0
    2.3406    5.0280    0.0000 N   0  0
    1.3751    3.8801    0.0000 C   0  0
    2.1749    2.6315    0.0000 C   0  0
    6.3724    4.6552    0.0000 C   0  0
    5.0044    5.2582    0.0000 C   0  0
    4.8363    6.7505    0.0000 C   0  0
    6.0460    7.6374    0.0000 C   0  0
    7.4189    7.0332    0.0000 C   0  0
    7.5821    5.5421    0.0000 N   0  0
    8.6292    7.9206    0.0000 N   0  0
    8.4684    9.4120    0.0000 C   0  0
    9.6795   10.2970    0.0000 C   0  0
   11.0515    9.6907    0.0000 N   0  0
   11.2124    8.1993    0.0000 C   0  0
   10.0013    7.3143    0.0000 C   0  0
   12.0204   10.3986    0.0000 C   0  0
  1  2  2  0
  2  3  1  0
  3  4  2  0
  4  5  1  0
  5  6  1  0
  1  6  1  0
  7  8  1  0
  7  9  2  0
  1  8  1  0
  2  9  1  0
  5 10  2  0
 11 12  1  0
 12 13  1  0
  6 11  1  0
 14 15  1  0
 15 16  2  0
 16 17  1  0
 17 18  2  0
 14 18  1  0
 19 20  1  0
 20 21  2  0
 21 22  1  0
 22 23  2  0
 23 24  1  0
 19 24  2  0
 25 26  1  0
 26 27  1  0
 27 28  1  0
 28 29  1  0
 29 30  1  0
 25 30  1  0
 28 31  1  0
 23 25  1  0
 15 20  1  0
  9 18  1  0
M  END
> <From> 
www.bindingDB.org

> <BindingDB Reactant_set_id>
50498673

> <Ligand InChI>
InChI=1S/C22H25N7OS/c1-3-8-29-19(30)7-5-16-20(25-26-21(16)29)17-14-24-22(31-17)15-4-6-18(23-13-15)28-11-9-27(2)10-12-28/h4-7,13-14H,3,8-12H2,1-2H3,(H,25,26)

> <Ligand InChI Key>
GNDZYFNJEZOISM-UHFFFAOYSA-N

> <BindingDB MonomerID>
50173641

> <BindingDB Ligand Name>
CHEMBL3810223

> <Target Name Assigned by Curator or DataSource>
DNA gyrase

> <Target Source Organism According to Curator or DataSource>
Staphylococcus aureus

> <Ki (nM)>


> <IC50 (nM)>
 8.0

> <Kd (nM)>


> <EC50 (nM)>


> <kon (M-1-s-1)>


> <koff (s-1)>


> <pH>


> <Temp C>


> <Curation/DataSource>
ChEMBL

> <Article DOI>
10.1021/acsmedchemlett.5b00368

> <PMID>
27096044

> <PubChem AID>


> <Patent Number>


> <Authors>
Cross, JB; Zhang, J; Yang, Q; Mesleh, MF; Romero, JA; Wang, B; Bevan, D; Poutsiaka, KM; Epie, F; Moy, T; Daniel, A; Shotwell, J; Chamberlain, B; Carter, N; Andersen, O; Barker, J; Ryan, MD; Metcalf, CA; Silverman, J; Nguyen, K; Lippa, B; Dolle, RE

> <Institution>
Cubist Pharmaceuticals, Inc.

> <Link to Ligand in BindingDB>
http://www.bindingdb.org/bind/chemsearch/marvin/MolStructure.jsp?monomerid=50173641

> <Link to Ligand-Target Pair in BindingDB>
http://www.bindingdb.org/jsp/dbsearch/PrimarySearch_ki.jsp?energyterm=kJ/mole&tag=pol&polymerid=2626&target=DNA+gyrase&column=ki&startPg=0&Increment=50&submit=Search

> <Link to Ligand-Target Pair in BindingDB>
http://www.bindingdb.org/jsp/dbsearch/PrimarySearch_ki.jsp?energyterm=kJ/mole&tag=r21&monomerid=50173641&enzyme=DNA+gyrase&column=ki&startPg=0&Increment=50&submit=Search

> <Ligand HET ID in PDB>


> <PDB ID(s) for Ligand-Target Complex>


> <PubChem CID>
127043438

> <PubChem SID>
104059505

> <ChEBI ID of Ligand>


> <ChEMBL ID of Ligand>
CHEMBL373236

> <DrugBank ID of Ligand>


> <IUPHAR_GRAC ID of Ligand>


> <KEGG ID of Ligand>


> <ZINC ID of Ligand>
ZINC13673453

> <Number of Protein Chains in Target (>1 implies a multichain complex)>
1

> <BindingDB Target Chain Sequence>
MVTALSDVNNTDNYGAGQIQVLEGLEAVRKRPGMYIGSTSERGLHHLVWEIVDNSIDEALAGYANQIEVVIEKDNWIKVTDNGRGIPVDIQEKMGRPAVEVILTVLHAGGKFGGGGYKVSGGLHGVGSSVVNALSQDLEVYVHRNETIYHQAYKKGVPQFDLKEVGTTDKTGTVIRFKADGEIFTETTVYNYETLQQRIRELAFLNKGIQITLRDERDEENVREDSYHYEGGIKSYVELLNENKEPIHDEPIYIHQSKDDIEVEIAIQYNSGYATNLLTYANNIHTYEGGTHEDGFKRALTRVLNSYGLSSKIMKEEKDRLSGEDTREGMTAIISIKHGDPQFEGQTKTKLGNSEVRQVVDKLFSEHFERFLYENPQVARTVVEKGIMAARARVAAKKAREVTRRKSALDVASLPGKLADCSSKSPEECEIFLVEGDSAGGSTKSGRDSRTQAILPLRGKILNVEKARLDRILNNNEIRQMITAFGTGIGGDFDLAKARYHKIVIMTDADVDGAHIRTLLLTFFYRFMRPLIEAGYVYIAQPPLYKLTQGKQKYYVYNDRELDKLKSELNPTPKWSIARYKGLGEMNADQLWETTMNPEHRALLQVKLEDAIEADQTFEMLMGDVVENRRQFIEDNAVYANLDF

> <PDB ID(s) of Target Chain>


> <UniProt (SwissProt) Recommended Name of Target Chain>
DNA gyrase subunit B

> <UniProt (SwissProt) Entry Name of Target Chain>
GYRB_STAAU

> <UniProt (SwissProt) Primary ID of Target Chain>
P0A0K8

> <UniProt (SwissProt) Secondary ID(s) of Target Chain>
P20832

> <UniProt (SwissProt) Alternative ID(s) of Target Chain>


> <UniProt (TrEMBL) Submitted Name of Target Chain>


> <UniProt (TrEMBL) Entry Name of Target Chain>


> <UniProt (TrEMBL) Primary ID of Target Chain>


> <UniProt (TrEMBL) Secondary ID(s) of Target Chain>


> <UniProt (TrEMBL) Alternative ID(s) of Target Chain>


$$$$

  SciTegic12091614222D

 27 30  0  0  0  0            999 V2000
    3.6243    2.9682    0.0000 S   0  0
    3.7308    4.4645    0.0000 C   0  0
    2.3406    5.0280    0.0000 N   0  0
    1.3751    3.8801    0.0000 C   0  0
    2.1749    2.6315    0.0000 C   0  0
    1.7138   -1.2033    0.0000 N   0  0
    2.5889    0.0182    0.0000 N   0  0
    1.7138    1.2033    0.0000 C   0  0
    0.2917    0.7475    0.0000 C   0  0
   -1.0028    1.5132    0.0000 C   0  0
   -2.3155    0.7475    0.0000 C   0  0
   -2.3155   -0.7475    0.0000 N   0  0
   -1.0028   -1.5132    0.0000 C   0  0
    0.2917   -0.7475    0.0000 C   0  0
    5.0044    5.2582    0.0000 C   0  0
    6.3724    4.6552    0.0000 C   0  0
    7.5821    5.5421    0.0000 C   0  0
    7.4189    7.0332    0.0000 C   0  0
    6.0460    7.6374    0.0000 N   0  0
    4.8363    6.7505    0.0000 C   0  0
    8.6275    7.9231    0.0000 C   0  0
    9.7266    7.4417    0.0000 O   0  0
    8.4952    9.1158    0.0000 O   0  0
   -0.9971   -3.0138    0.0000 O   0  0
   -2.2935   -3.7700    0.0000 C   0  0
   -2.2878   -5.2708    0.0000 C   0  0
   -3.3243   -5.8754    0.0000 C   0  0
  1  2  1  0
  2  3  2  0
  3  4  1  0
  4  5  2  0
  1  5  1  0
  6  7  1  0
  7  8  2  0
  8  9  1  0
  9 10  1  0
 10 11  2  0
 11 12  1  0
 12 13  2  0
 13 14  1  0
  6 14  1  0
  9 14  2  0
  5  8  1  0
 15 16  2  0
 16 17  1  0
 17 18  2  0
 18 19  1  0
 19 20  2  0
 20 15  1  0
  2 15  1  0
 21 22  1  0
 21 23  2  0
 18 21  1  0
 13 24  1  0
 24 25  1  0
 25 26  1  0
 26 27  1  0
M  END
> <From> 
www.bindingDB.org

> <BindingDB Reactant_set_id>
50445675

> <Ligand InChI>
InChI=1S/C18H15N5O3S/c1-2-7-26-16-15-11(5-6-19-16)14(22-23-15)13-9-21-17(27-13)10-3-4-12(18(24)25)20-8-10/h3-6,8-9H,2,7H2,1H3,(H,22,23)(H,24,25)

> <Ligand InChI Key>
HDCNADZRFBRBAY-UHFFFAOYSA-N

> <BindingDB MonomerID>
50135116

> <BindingDB Ligand Name>
CHEMBL3740365

> <Target Name Assigned by Curator or DataSource>
DNA gyrase

> <Target Source Organism According to Curator or DataSource>
Staphylococcus aureus

> <Ki (nM)>


> <IC50 (nM)>
<8

> <Kd (nM)>


> <EC50 (nM)>


> <kon (M-1-s-1)>


> <koff (s-1)>


> <pH>


> <Temp C>


> <Curation/DataSource>
ChEMBL

> <Article DOI>
10.1021/acsmedchemlett.5b00266

> <PMID>
26487916

> <PubChem AID>


> <Patent Number>


> <Authors>
Zhang, J; Yang, Q; Romero, JA; Cross, J; Wang, B; Poutsiaka, KM; Epie, F; Bevan, D; Wu, Y; Moy, T; Daniel, A; Chamberlain, B; Carter, N; Shotwell, J; Arya, A; Kumar, V; Silverman, J; Nguyen, K; Metcalf, CA; Ryan, D; Lippa, B; Dolle, RE

> <Institution>
Cubist Pharmaceuticals Inc.

> <Link to Ligand in BindingDB>
http://www.bindingdb.org/bind/chemsearch/marvin/MolStructure.jsp?monomerid=50135116

> <Link to Ligand-Target Pair in BindingDB>
http://www.bindingdb.org/jsp/dbsearch/PrimarySearch_ki.jsp?energyterm=kJ/mole&tag=pol&polymerid=2626&target=DNA+gyrase&column=ki&startPg=0&Increment=50&submit=Search

> <Link to Ligand-Target Pair in BindingDB>
http://www.bindingdb.org/jsp/dbsearch/PrimarySearch_ki.jsp?energyterm=kJ/mole&tag=r21&monomerid=50135116&enzyme=DNA+gyrase&column=ki&startPg=0&Increment=50&submit=Search

> <Ligand HET ID in PDB>


> <PDB ID(s) for Ligand-Target Complex>


> <PubChem CID>
127039083

> <PubChem SID>
336951729

> <ChEBI ID of Ligand>


> <ChEMBL ID of Ligand>


> <DrugBank ID of Ligand>


> <IUPHAR_GRAC ID of Ligand>


> <KEGG ID of Ligand>


> <ZINC ID of Ligand>


> <Number of Protein Chains in Target (>1 implies a multichain complex)>
1

> <BindingDB Target Chain Sequence>
MVTALSDVNNTDNYGAGQIQVLEGLEAVRKRPGMYIGSTSERGLHHLVWEIVDNSIDEALAGYANQIEVVIEKDNWIKVTDNGRGIPVDIQEKMGRPAVEVILTVLHAGGKFGGGGYKVSGGLHGVGSSVVNALSQDLEVYVHRNETIYHQAYKKGVPQFDLKEVGTTDKTGTVIRFKADGEIFTETTVYNYETLQQRIRELAFLNKGIQITLRDERDEENVREDSYHYEGGIKSYVELLNENKEPIHDEPIYIHQSKDDIEVEIAIQYNSGYATNLLTYANNIHTYEGGTHEDGFKRALTRVLNSYGLSSKIMKEEKDRLSGEDTREGMTAIISIKHGDPQFEGQTKTKLGNSEVRQVVDKLFSEHFERFLYENPQVARTVVEKGIMAARARVAAKKAREVTRRKSALDVASLPGKLADCSSKSPEECEIFLVEGDSAGGSTKSGRDSRTQAILPLRGKILNVEKARLDRILNNNEIRQMITAFGTGIGGDFDLAKARYHKIVIMTDADVDGAHIRTLLLTFFYRFMRPLIEAGYVYIAQPPLYKLTQGKQKYYVYNDRELDKLKSELNPTPKWSIARYKGLGEMNADQLWETTMNPEHRALLQVKLEDAIEADQTFEMLMGDVVENRRQFIEDNAVYANLDF

> <PDB ID(s) of Target Chain>


> <UniProt (SwissProt) Recommended Name of Target Chain>
DNA gyrase subunit B

> <UniProt (SwissProt) Entry Name of Target Chain>
GYRB_STAAU

> <UniProt (SwissProt) Primary ID of Target Chain>
P0A0K8

> <UniProt (SwissProt) Secondary ID(s) of Target Chain>
P20832

> <UniProt (SwissProt) Alternative ID(s) of Target Chain>


> <UniProt (TrEMBL) Submitted Name of Target Chain>


> <UniProt (TrEMBL) Entry Name of Target Chain>


> <UniProt (TrEMBL) Primary ID of Target Chain>


> <UniProt (TrEMBL) Secondary ID(s) of Target Chain>


> <UniProt (TrEMBL) Alternative ID(s) of Target Chain>


$$$$

  SciTegic12091614222D

 26 29  0  0  0  0            999 V2000
    3.6243    2.9682    0.0000 S   0  0
    3.7308    4.4645    0.0000 C   0  0
    2.3406    5.0280    0.0000 N   0  0
    1.3751    3.8801    0.0000 C   0  0
    2.1749    2.6315    0.0000 C   0  0
    1.7138   -1.2033    0.0000 N   0  0
    2.5889    0.0182    0.0000 N   0  0
    1.7138    1.2033    0.0000 C   0  0
    0.2917    0.7475    0.0000 C   0  0
   -1.0028    1.5132    0.0000 C   0  0
   -2.3155    0.7475    0.0000 C   0  0
   -2.3155   -0.7475    0.0000 N   0  0
   -1.0028   -1.5132    0.0000 C   0  0
    0.2917   -0.7475    0.0000 C   0  0
    5.0044    5.2582    0.0000 C   0  0
    6.3724    4.6552    0.0000 C   0  0
    7.5821    5.5421    0.0000 C   0  0
    7.4189    7.0332    0.0000 C   0  0
    6.0460    7.6374    0.0000 N   0  0
    4.8363    6.7505    0.0000 C   0  0
    8.6275    7.9231    0.0000 C   0  0
    8.4952    9.1158    0.0000 O   0  0
   -0.9971   -3.0138    0.0000 O   0  0
   -2.2935   -3.7700    0.0000 C   0  0
   -2.2878   -5.2708    0.0000 C   0  0
   -3.3243   -5.8754    0.0000 C   0  0
  1  2  1  0
  2  3  2  0
  3  4  1  0
  4  5  2  0
  1  5  1  0
  6  7  1  0
  7  8  2  0
  8  9  1  0
  9 10  1  0
 10 11  2  0
 11 12  1  0
 12 13  2  0
 13 14  1  0
  6 14  1  0
  9 14  2  0
  5  8  1  0
 15 16  2  0
 16 17  1  0
 17 18  2  0
 18 19  1  0
 19 20  2  0
 20 15  1  0
  2 15  1  0
 21 22  1  0
 18 21  1  0
 13 23  1  0
 23 24  1  0
 24 25  1  0
 25 26  1  0
M  END
> <From> 
www.bindingDB.org

> <BindingDB Reactant_set_id>
50445674

> <Ligand InChI>
InChI=1S/C18H17N5O2S/c1-2-7-25-17-16-13(5-6-19-17)15(22-23-16)14-9-21-18(26-14)11-3-4-12(10-24)20-8-11/h3-6,8-9,24H,2,7,10H2,1H3,(H,22,23)

> <Ligand InChI Key>
AHCCZFIPLMGFCL-UHFFFAOYSA-N

> <BindingDB MonomerID>
50135115

> <BindingDB Ligand Name>
CHEMBL3741066

> <Target Name Assigned by Curator or DataSource>
DNA gyrase

> <Target Source Organism According to Curator or DataSource>
Staphylococcus aureus

> <Ki (nM)>


> <IC50 (nM)>
<8

> <Kd (nM)>


> <EC50 (nM)>


> <kon (M-1-s-1)>


> <koff (s-1)>


> <pH>


> <Temp C>


> <Curation/DataSource>
ChEMBL

> <Article DOI>
10.1021/acsmedchemlett.5b00266

> <PMID>
26487916

> <PubChem AID>


> <Patent Number>


> <Authors>
Zhang, J; Yang, Q; Romero, JA; Cross, J; Wang, B; Poutsiaka, KM; Epie, F; Bevan, D; Wu, Y; Moy, T; Daniel, A; Chamberlain, B; Carter, N; Shotwell, J; Arya, A; Kumar, V; Silverman, J; Nguyen, K; Metcalf, CA; Ryan, D; Lippa, B; Dolle, RE

> <Institution>
Cubist Pharmaceuticals Inc.

> <Link to Ligand in BindingDB>
http://www.bindingdb.org/bind/chemsearch/marvin/MolStructure.jsp?monomerid=50135115

> <Link to Ligand-Target Pair in BindingDB>
http://www.bindingdb.org/jsp/dbsearch/PrimarySearch_ki.jsp?energyterm=kJ/mole&tag=pol&polymerid=2626&target=DNA+gyrase&column=ki&startPg=0&Increment=50&submit=Search

> <Link to Ligand-Target Pair in BindingDB>
http://www.bindingdb.org/jsp/dbsearch/PrimarySearch_ki.jsp?energyterm=kJ/mole&tag=r21&monomerid=50135115&enzyme=DNA+gyrase&column=ki&startPg=0&Increment=50&submit=Search

> <Ligand HET ID in PDB>


> <PDB ID(s) for Ligand-Target Complex>


> <PubChem CID>
127041400

> <PubChem SID>
336951728

> <ChEBI ID of Ligand>


> <ChEMBL ID of Ligand>


> <DrugBank ID of Ligand>


> <IUPHAR_GRAC ID of Ligand>


> <KEGG ID of Ligand>


> <ZINC ID of Ligand>


> <Number of Protein Chains in Target (>1 implies a multichain complex)>
1

> <BindingDB Target Chain Sequence>
MVTALSDVNNTDNYGAGQIQVLEGLEAVRKRPGMYIGSTSERGLHHLVWEIVDNSIDEALAGYANQIEVVIEKDNWIKVTDNGRGIPVDIQEKMGRPAVEVILTVLHAGGKFGGGGYKVSGGLHGVGSSVVNALSQDLEVYVHRNETIYHQAYKKGVPQFDLKEVGTTDKTGTVIRFKADGEIFTETTVYNYETLQQRIRELAFLNKGIQITLRDERDEENVREDSYHYEGGIKSYVELLNENKEPIHDEPIYIHQSKDDIEVEIAIQYNSGYATNLLTYANNIHTYEGGTHEDGFKRALTRVLNSYGLSSKIMKEEKDRLSGEDTREGMTAIISIKHGDPQFEGQTKTKLGNSEVRQVVDKLFSEHFERFLYENPQVARTVVEKGIMAARARVAAKKAREVTRRKSALDVASLPGKLADCSSKSPEECEIFLVEGDSAGGSTKSGRDSRTQAILPLRGKILNVEKARLDRILNNNEIRQMITAFGTGIGGDFDLAKARYHKIVIMTDADVDGAHIRTLLLTFFYRFMRPLIEAGYVYIAQPPLYKLTQGKQKYYVYNDRELDKLKSELNPTPKWSIARYKGLGEMNADQLWETTMNPEHRALLQVKLEDAIEADQTFEMLMGDVVENRRQFIEDNAVYANLDF

> <PDB ID(s) of Target Chain>


> <UniProt (SwissProt) Recommended Name of Target Chain>
DNA gyrase subunit B

> <UniProt (SwissProt) Entry Name of Target Chain>
GYRB_STAAU

> <UniProt (SwissProt) Primary ID of Target Chain>
P0A0K8

> <UniProt (SwissProt) Secondary ID(s) of Target Chain>
P20832

> <UniProt (SwissProt) Alternative ID(s) of Target Chain>


> <UniProt (TrEMBL) Submitted Name of Target Chain>


> <UniProt (TrEMBL) Entry Name of Target Chain>


> <UniProt (TrEMBL) Primary ID of Target Chain>


> <UniProt (TrEMBL) Secondary ID(s) of Target Chain>


> <UniProt (TrEMBL) Alternative ID(s) of Target Chain>


$$$$

  SciTegic12091614222D

 32 33  0  0  0  0            999 V2000
    3.6243    2.9682    0.0000 S   0  0
    3.7308    4.4645    0.0000 C   0  0
    2.3406    5.0280    0.0000 N   0  0
    1.3751    3.8801    0.0000 C   0  0
    2.1749    2.6315    0.0000 C   0  0
    1.7138   -1.2033    0.0000 N   0  0
    2.5889    0.0182    0.0000 N   0  0
    1.7138    1.2033    0.0000 C   0  0
    0.2917    0.7475    0.0000 C   0  0
   -1.0028    1.5132    0.0000 C   0  0
   -2.3155    0.7475    0.0000 C   0  0
   -2.3155   -0.7475    0.0000 N   0  0
   -1.0028   -1.5132    0.0000 C   0  0
    0.2917   -0.7475    0.0000 C   0  0
    5.0044    5.2582    0.0000 C   0  0
    6.3724    4.6552    0.0000 C   0  0
    7.5821    5.5421    0.0000 C   0  0
    7.4189    7.0332    0.0000 C   0  0
    6.0460    7.6374    0.0000 N   0  0
    4.8363    6.7505    0.0000 C   0  0
    8.6275    7.9231    0.0000 C   0  0
    8.4620    9.4148    0.0000 O   0  0
   -0.9971   -3.0138    0.0000 O   0  0
   -2.2935   -3.7700    0.0000 C   0  0
   -2.2878   -5.2708    0.0000 C   0  0
   -3.3243   -5.8754    0.0000 C   0  0
    9.6705   10.3047    0.0000 P   0  0
    9.5382   11.4974    0.0000 O   0  0
   10.7697    9.8233    0.0000 O   0  5
   10.6372   11.0158    0.0000 O   0  5
   16.0452    2.8847    0.0000 Na  0  3
   13.5452    2.8847    0.0000 Na  0  3
  1  2  1  0
  2  3  2  0
  3  4  1  0
  4  5  2  0
  1  5  1  0
  6  7  1  0
  7  8  2  0
  8  9  1  0
  9 10  1  0
 10 11  2  0
 11 12  1  0
 12 13  2  0
 13 14  1  0
  6 14  1  0
  9 14  2  0
  5  8  1  0
 15 16  2  0
 16 17  1  0
 17 18  2  0
 18 19  1  0
 19 20  2  0
 20 15  1  0
  2 15  1  0
 21 22  1  0
 18 21  1  0
 13 23  1  0
 23 24  1  0
 24 25  1  0
 25 26  1  0
 22 27  1  0
 27 28  2  0
 27 29  1  0
 27 30  1  0
M  CHG  4  29  -1  30  -1  31   1  32   1
M  END
> <From> 
www.bindingDB.org

> <BindingDB Reactant_set_id>
50445673

> <Ligand InChI>
InChI=1S/C18H18N5O5PS.2Na/c1-2-7-27-17-16-13(5-6-19-17)15(22-23-16)14-9-21-18(30-14)11-3-4-12(20-8-11)10-28-29(24,25)26;;/h3-6,8-9H,2,7,10H2,1H3,(H,22,23)(H2,24,25,26);;/q;2*+1/p-2

> <Ligand InChI Key>
OGAQAOLTNMCISL-UHFFFAOYSA-L

> <BindingDB MonomerID>
50135114

> <BindingDB Ligand Name>
CHEMBL3742072

> <Target Name Assigned by Curator or DataSource>
DNA gyrase

> <Target Source Organism According to Curator or DataSource>
Staphylococcus aureus

> <Ki (nM)>


> <IC50 (nM)>
<8

> <Kd (nM)>


> <EC50 (nM)>


> <kon (M-1-s-1)>


> <koff (s-1)>


> <pH>


> <Temp C>


> <Curation/DataSource>
ChEMBL

> <Article DOI>
10.1021/acsmedchemlett.5b00266

> <PMID>
26487916

> <PubChem AID>


> <Patent Number>


> <Authors>
Zhang, J; Yang, Q; Romero, JA; Cross, J; Wang, B; Poutsiaka, KM; Epie, F; Bevan, D; Wu, Y; Moy, T; Daniel, A; Chamberlain, B; Carter, N; Shotwell, J; Arya, A; Kumar, V; Silverman, J; Nguyen, K; Metcalf, CA; Ryan, D; Lippa, B; Dolle, RE

> <Institution>
Cubist Pharmaceuticals Inc.

> <Link to Ligand in BindingDB>
http://www.bindingdb.org/bind/chemsearch/marvin/MolStructure.jsp?monomerid=50135114

> <Link to Ligand-Target Pair in BindingDB>
http://www.bindingdb.org/jsp/dbsearch/PrimarySearch_ki.jsp?energyterm=kJ/mole&tag=pol&polymerid=2626&target=DNA+gyrase&column=ki&startPg=0&Increment=50&submit=Search

> <Link to Ligand-Target Pair in BindingDB>
http://www.bindingdb.org/jsp/dbsearch/PrimarySearch_ki.jsp?energyterm=kJ/mole&tag=r21&monomerid=50135114&enzyme=DNA+gyrase&column=ki&startPg=0&Increment=50&submit=Search

> <Ligand HET ID in PDB>


> <PDB ID(s) for Ligand-Target Complex>


> <PubChem CID>
127041401

> <PubChem SID>
336951727

> <ChEBI ID of Ligand>


> <ChEMBL ID of Ligand>


> <DrugBank ID of Ligand>


> <IUPHAR_GRAC ID of Ligand>


> <KEGG ID of Ligand>


> <ZINC ID of Ligand>


> <Number of Protein Chains in Target (>1 implies a multichain complex)>
1

> <BindingDB Target Chain Sequence>
MVTALSDVNNTDNYGAGQIQVLEGLEAVRKRPGMYIGSTSERGLHHLVWEIVDNSIDEALAGYANQIEVVIEKDNWIKVTDNGRGIPVDIQEKMGRPAVEVILTVLHAGGKFGGGGYKVSGGLHGVGSSVVNALSQDLEVYVHRNETIYHQAYKKGVPQFDLKEVGTTDKTGTVIRFKADGEIFTETTVYNYETLQQRIRELAFLNKGIQITLRDERDEENVREDSYHYEGGIKSYVELLNENKEPIHDEPIYIHQSKDDIEVEIAIQYNSGYATNLLTYANNIHTYEGGTHEDGFKRALTRVLNSYGLSSKIMKEEKDRLSGEDTREGMTAIISIKHGDPQFEGQTKTKLGNSEVRQVVDKLFSEHFERFLYENPQVARTVVEKGIMAARARVAAKKAREVTRRKSALDVASLPGKLADCSSKSPEECEIFLVEGDSAGGSTKSGRDSRTQAILPLRGKILNVEKARLDRILNNNEIRQMITAFGTGIGGDFDLAKARYHKIVIMTDADVDGAHIRTLLLTFFYRFMRPLIEAGYVYIAQPPLYKLTQGKQKYYVYNDRELDKLKSELNPTPKWSIARYKGLGEMNADQLWETTMNPEHRALLQVKLEDAIEADQTFEMLMGDVVENRRQFIEDNAVYANLDF

> <PDB ID(s) of Target Chain>


> <UniProt (SwissProt) Recommended Name of Target Chain>
DNA gyrase subunit B

> <UniProt (SwissProt) Entry Name of Target Chain>
GYRB_STAAU

> <UniProt (SwissProt) Primary ID of Target Chain>
P0A0K8

> <UniProt (SwissProt) Secondary ID(s) of Target Chain>
P20832

> <UniProt (SwissProt) Alternative ID(s) of Target Chain>


> <UniProt (TrEMBL) Submitted Name of Target Chain>


> <UniProt (TrEMBL) Entry Name of Target Chain>


> <UniProt (TrEMBL) Primary ID of Target Chain>


> <UniProt (TrEMBL) Secondary ID(s) of Target Chain>


> <UniProt (TrEMBL) Alternative ID(s) of Target Chain>


$$$$

  SciTegic12091614222D

 27 30  0  0  0  0            999 V2000
    3.6243    2.9682    0.0000 S   0  0
    3.7308    4.4645    0.0000 C   0  0
    2.3406    5.0280    0.0000 N   0  0
    1.3751    3.8801    0.0000 C   0  0
    2.1749    2.6315    0.0000 C   0  0
    1.7138   -1.2033    0.0000 N   0  0
    2.5889    0.0182    0.0000 N   0  0
    1.7138    1.2033    0.0000 C   0  0
    0.2917    0.7475    0.0000 C   0  0
   -1.0028    1.5132    0.0000 C   0  0
   -2.3155    0.7475    0.0000 C   0  0
   -2.3155   -0.7475    0.0000 C   0  0
   -1.0028   -1.5132    0.0000 N   0  0
    0.2917   -0.7475    0.0000 C   0  0
    5.0044    5.2582    0.0000 C   0  0
    6.3724    4.6552    0.0000 C   0  0
    7.5821    5.5421    0.0000 C   0  0
    7.4189    7.0332    0.0000 C   0  0
    6.0460    7.6374    0.0000 N   0  0
    4.8363    6.7505    0.0000 C   0  0
    8.6275    7.9231    0.0000 C   0  0
    9.7266    7.4417    0.0000 O   0  0
    8.4952    9.1158    0.0000 O   0  0
   -3.3560   -1.3452    0.0000 O   0  0
   -0.9971   -3.0138    0.0000 C   0  0
   -2.2935   -3.7700    0.0000 C   0  0
   -2.2889   -4.9699    0.0000 C   0  0
  1  2  1  0
  2  3  2  0
  3  4  1  0
  4  5  2  0
  1  5  1  0
  6  7  1  0
  7  8  2  0
  8  9  1  0
  9 10  1  0
 10 11  2  0
 11 12  1  0
 12 13  1  0
 13 14  1  0
  6 14  1  0
  9 14  2  0
  5  8  1  0
 15 16  2  0
 16 17  1  0
 17 18  2  0
 18 19  1  0
 19 20  2  0
 20 15  1  0
  2 15  1  0
 21 22  1  0
 21 23  2  0
 18 21  1  0
 12 24  2  0
 13 25  1  0
 25 26  1  0
 26 27  1  0
M  END
> <From> 
www.bindingDB.org

> <BindingDB Reactant_set_id>
50441790

> <Ligand InChI>
InChI=1S/C18H15N5O3S/c1-2-7-23-14(24)6-4-11-15(21-22-16(11)23)13-9-20-17(27-13)10-3-5-12(18(25)26)19-8-10/h3-6,8-9H,2,7H2,1H3,(H,21,22)(H,25,26)

> <Ligand InChI Key>
ILUNDOXROOQFGD-UHFFFAOYSA-N

> <BindingDB MonomerID>
50134212

> <BindingDB Ligand Name>
CHEMBL3741453

> <Target Name Assigned by Curator or DataSource>
DNA Gyrase Subunit B

> <Target Source Organism According to Curator or DataSource>
Staphylococcus aureus

> <Ki (nM)>


> <IC50 (nM)>
<8.0

> <Kd (nM)>


> <EC50 (nM)>


> <kon (M-1-s-1)>


> <koff (s-1)>


> <pH>


> <Temp C>


> <Curation/DataSource>
ChEMBL

> <Article DOI>
10.1021/acsmedchemlett.5b00266

> <PMID>
26487916

> <PubChem AID>


> <Patent Number>


> <Authors>
Zhang, J; Yang, Q; Romero, JA; Cross, J; Wang, B; Poutsiaka, KM; Epie, F; Bevan, D; Wu, Y; Moy, T; Daniel, A; Chamberlain, B; Carter, N; Shotwell, J; Arya, A; Kumar, V; Silverman, J; Nguyen, K; Metcalf, CA; Ryan, D; Lippa, B; Dolle, RE

> <Institution>
Cubist Pharmaceuticals Inc.

> <Link to Ligand in BindingDB>
http://www.bindingdb.org/bind/chemsearch/marvin/MolStructure.jsp?monomerid=50134212

> <Link to Ligand-Target Pair in BindingDB>
http://www.bindingdb.org/jsp/dbsearch/PrimarySearch_ki.jsp?energyterm=kJ/mole&tag=pol&polymerid=2626&target=DNA+Gyrase+Subunit+B&column=ki&startPg=0&Increment=50&submit=Search

> <Link to Ligand-Target Pair in BindingDB>
http://www.bindingdb.org/jsp/dbsearch/PrimarySearch_ki.jsp?energyterm=kJ/mole&tag=r21&monomerid=50134212&enzyme=DNA+Gyrase+Subunit+B&column=ki&startPg=0&Increment=50&submit=Search

> <Ligand HET ID in PDB>


> <PDB ID(s) for Ligand-Target Complex>


> <PubChem CID>
127041403

> <PubChem SID>
104024879

> <ChEBI ID of Ligand>


> <ChEMBL ID of Ligand>
CHEMBL421934

> <DrugBank ID of Ligand>


> <IUPHAR_GRAC ID of Ligand>


> <KEGG ID of Ligand>


> <ZINC ID of Ligand>
ZINC13528217

> <Number of Protein Chains in Target (>1 implies a multichain complex)>
1

> <BindingDB Target Chain Sequence>
MVTALSDVNNTDNYGAGQIQVLEGLEAVRKRPGMYIGSTSERGLHHLVWEIVDNSIDEALAGYANQIEVVIEKDNWIKVTDNGRGIPVDIQEKMGRPAVEVILTVLHAGGKFGGGGYKVSGGLHGVGSSVVNALSQDLEVYVHRNETIYHQAYKKGVPQFDLKEVGTTDKTGTVIRFKADGEIFTETTVYNYETLQQRIRELAFLNKGIQITLRDERDEENVREDSYHYEGGIKSYVELLNENKEPIHDEPIYIHQSKDDIEVEIAIQYNSGYATNLLTYANNIHTYEGGTHEDGFKRALTRVLNSYGLSSKIMKEEKDRLSGEDTREGMTAIISIKHGDPQFEGQTKTKLGNSEVRQVVDKLFSEHFERFLYENPQVARTVVEKGIMAARARVAAKKAREVTRRKSALDVASLPGKLADCSSKSPEECEIFLVEGDSAGGSTKSGRDSRTQAILPLRGKILNVEKARLDRILNNNEIRQMITAFGTGIGGDFDLAKARYHKIVIMTDADVDGAHIRTLLLTFFYRFMRPLIEAGYVYIAQPPLYKLTQGKQKYYVYNDRELDKLKSELNPTPKWSIARYKGLGEMNADQLWETTMNPEHRALLQVKLEDAIEADQTFEMLMGDVVENRRQFIEDNAVYANLDF

> <PDB ID(s) of Target Chain>


> <UniProt (SwissProt) Recommended Name of Target Chain>
DNA gyrase subunit B

> <UniProt (SwissProt) Entry Name of Target Chain>
GYRB_STAAU

> <UniProt (SwissProt) Primary ID of Target Chain>
P0A0K8

> <UniProt (SwissProt) Secondary ID(s) of Target Chain>
P20832

> <UniProt (SwissProt) Alternative ID(s) of Target Chain>


> <UniProt (TrEMBL) Submitted Name of Target Chain>


> <UniProt (TrEMBL) Entry Name of Target Chain>


> <UniProt (TrEMBL) Primary ID of Target Chain>


> <UniProt (TrEMBL) Secondary ID(s) of Target Chain>


> <UniProt (TrEMBL) Alternative ID(s) of Target Chain>


$$$$

  Mrv0541 11241420052D          

 28 31  0  0  0  0            999 V2000
    4.5068  -28.1414    0.0000 C   0  0  0  0  0  0  0  0  0  0  0  0
    4.5057  -28.9687    0.0000 C   0  0  0  0  0  0  0  0  0  0  0  0
    5.2205  -29.3816    0.0000 N   0  0  0  0  0  0  0  0  0  0  0  0
    5.2187  -27.7286    0.0000 C   0  0  0  0  0  0  0  0  0  0  0  0
    5.9341  -28.1377    0.0000 C   0  0  0  0  0  0  0  0  0  0  0  0
    5.9343  -28.9687    0.0000 C   0  0  0  0  0  0  0  0  0  0  0  0
    6.7248  -29.2253    0.0000 S   0  0  0  0  0  0  0  0  0  0  0  0
    7.2131  -28.5529    0.0000 C   0  0  0  0  0  0  0  0  0  0  0  0
    6.7244  -27.8807    0.0000 N   0  0  0  0  0  0  0  0  0  0  0  0
    8.0381  -28.5525    0.0000 N   0  0  0  0  0  0  0  0  0  0  0  0
    8.4504  -27.8379    0.0000 C   0  0  0  0  0  0  0  0  0  0  0  0
    9.2753  -27.8376    0.0000 O   0  0  0  0  0  0  0  0  0  0  0  0
    8.0376  -27.1236    0.0000 N   0  0  0  0  0  0  0  0  0  0  0  0
    8.4499  -26.4090    0.0000 C   0  0  0  0  0  0  0  0  0  0  0  0
    8.0371  -25.6946    0.0000 C   0  0  0  0  0  0  0  0  0  0  0  0
    3.7909  -29.3806    0.0000 O   0  0  0  0  0  0  0  0  0  0  0  0
    5.2208  -30.2066    0.0000 C   0  0  0  0  0  0  0  0  0  0  0  0
    4.5064  -30.6192    0.0000 C   0  0  0  0  0  0  0  0  0  0  0  0
    5.9353  -30.6189    0.0000 C   0  0  0  0  0  0  0  0  0  0  0  0
    3.7923  -27.7290    0.0000 C   0  0  0  0  0  0  0  0  0  0  0  0
    3.7956  -26.9031    0.0000 C   0  0  0  0  0  0  0  0  0  0  0  0
    2.3693  -27.7328    0.0000 C   0  0  0  0  0  0  0  0  0  0  0  0
    3.0837  -28.1413    0.0000 C   0  0  0  0  0  0  0  0  0  0  0  0
    2.3665  -26.9036    0.0000 N   0  0  0  0  0  0  0  0  0  0  0  0
    3.0773  -26.4889    0.0000 C   0  0  0  0  0  0  0  0  0  0  0  0
    2.9026  -25.6847    0.0000 N   0  0  0  0  0  0  0  0  0  0  0  0
    2.0838  -25.6024    0.0000 C   0  0  0  0  0  0  0  0  0  0  0  0
    1.7526  -26.3556    0.0000 N   0  0  0  0  0  0  0  0  0  0  0  0
  1  2  1  0  0  0  0
  2  3  1  0  0  0  0
  3  6  1  0  0  0  0
  5  4  1  0  0  0  0
  4  1  2  0  0  0  0
  5  6  2  0  0  0  0
  6  7  1  0  0  0  0
  7  8  1  0  0  0  0
  8  9  2  0  0  0  0
  9  5  1  0  0  0  0
  8 10  1  0  0  0  0
 10 11  1  0  0  0  0
 11 12  2  0  0  0  0
 11 13  1  0  0  0  0
 13 14  1  0  0  0  0
 14 15  1  0  0  0  0
  2 16  2  0  0  0  0
  3 17  1  0  0  0  0
 17 18  1  0  0  0  0
 17 19  1  0  0  0  0
  1 20  1  0  0  0  0
 20 21  2  0  0  0  0
 21 25  1  0  0  0  0
 24 22  1  0  0  0  0
 22 23  2  0  0  0  0
 23 20  1  0  0  0  0
 24 25  1  0  0  0  0
 25 26  2  0  0  0  0
 26 27  1  0  0  0  0
 27 28  2  0  0  0  0
 28 24  1  0  0  0  0
M  END
> <From> 
www.bindingDB.org

> <BindingDB Reactant_set_id>
51091609

> <Ligand InChI>
InChI=1S/C18H19N7O2S/c1-4-19-17(27)23-18-22-13-8-12(15(26)25(10(2)3)16(13)28-18)11-5-6-24-14(7-11)20-9-21-24/h5-10H,4H2,1-3H3,(H2,19,22,23,27)

> <Ligand InChI Key>
YEDSLFIZDGXUKE-UHFFFAOYSA-N

> <BindingDB MonomerID>
50447297

> <BindingDB Ligand Name>
CHEMBL3114210

> <Target Name Assigned by Curator or DataSource>
DNA gyrase subunit B

> <Target Source Organism According to Curator or DataSource>


> <Ki (nM)>


> <IC50 (nM)>
 8.0

> <Kd (nM)>


> <EC50 (nM)>


> <kon (M-1-s-1)>


> <koff (s-1)>


> <pH>


> <Temp C>


> <Curation/DataSource>
ChEMBL

> <Article DOI>
10.1016/j.bmcl.2013.12.080

> <PMID>
24405701

> <PubChem AID>


> <Patent Number>


> <Authors>
Kale, RR; Kale, MG; Waterson, D; Raichurkar, A; Hameed, SP; Manjunatha, MR; Kishore Reddy, BK; Malolanarasimhan, K; Shinde, V; Koushik, K; Jena, LK; Menasinakai, S; Humnabadkar, V; Madhavapeddi, P; Basavarajappa, H; Sharma, S; Nandishaiah, R; Mahesh Kumar, KN; Ganguly, S; Ahuja, V; Gaonkar, S; Naveen Kumar, CN; Ogg, D; Boriack-Sjodin, PA; Sambandamurthy, VK; de Sousa, SM; Ghorpade, SR

> <Institution>
AstraZeneca

> <Link to Ligand in BindingDB>
http://www.bindingdb.org/bind/chemsearch/marvin/MolStructure.jsp?monomerid=50447297

> <Link to Ligand-Target Pair in BindingDB>
http://www.bindingdb.org/jsp/dbsearch/PrimarySearch_ki.jsp?energyterm=kJ/mole&tag=pol&polymerid=50006452&target=DNA+gyrase+subunit+B&column=ki&startPg=0&Increment=50&submit=Search

> <Link to Ligand-Target Pair in BindingDB>
http://www.bindingdb.org/jsp/dbsearch/PrimarySearch_ki.jsp?energyterm=kJ/mole&tag=r21&monomerid=50447297&enzyme=DNA+gyrase+subunit+B&column=ki&startPg=0&Increment=50&submit=Search

> <Ligand HET ID in PDB>


> <PDB ID(s) for Ligand-Target Complex>


> <PubChem CID>
76332285

> <PubChem SID>
194945193

> <ChEBI ID of Ligand>


> <ChEMBL ID of Ligand>
CHEMBL3114210

> <DrugBank ID of Ligand>


> <IUPHAR_GRAC ID of Ligand>


> <KEGG ID of Ligand>


> <ZINC ID of Ligand>


> <Number of Protein Chains in Target (>1 implies a multichain complex)>
1

> <BindingDB Target Chain Sequence>
MAAQKNNAPKEYGADSITILEGLEAVRKRPGMYIGSTGERGLHHLIWEVVDNAVDEAMAGFATRVDVKIHADGSVEVRDDGRGIPVEMHATGMPTIDVVMTQLHAGGKFDGETYAVSGGLHGVGVSVVNALSTRLEATVLRDGYEWFQYYDRSVPGKLKQGGETKETGTTIRFWADPEIFETTDYNFETVARRLQEMAFLNKGLTIELTDERVTAEEVVDDVVKDTAEAPKTADEKAAEATGPSKVKHRVFHYPGGLVDYVKHINRTKTPIQQSIIDFDGKGPGHEVEIAMQWNAGYSESVHTFANTINTHEGGTHEEGFRAALTSVVNRYAKDKKLLKDKDPNLTGDDIREGLAAVISVKVAEPQFEGQTKTKLGNTEVKSFVQKICNEQLQHWFEANPAEAKTVVNKAVSSAQARIAARKARELVRRKSATDIGGLPGKLADCRSTDPSKSELYVVEGDSAGGSAKSGRDSMFQAILPLRGKIINVEKARIDRVLKNTEVQSIITALGTGIHDEFDISKLRYHKIVLMADADVDGQHISTLLLTLLFRFMKPLVENGHIFLAQPPLYKLKWQRSEPEFAYSDRERDGLLEAGRAAGKKINVDDGIQRYKGLGEMDAKELWETTMDPSVRVLRQVTLDDAAAADELFSILMGEDVEARRSFITRNAKDVRFLDV

> <PDB ID(s) of Target Chain>
4BAE

> <UniProt (SwissProt) Recommended Name of Target Chain>
DNA gyrase subunit B

> <UniProt (SwissProt) Entry Name of Target Chain>
GYRB_MYCSM

> <UniProt (SwissProt) Primary ID of Target Chain>
P0C559

> <UniProt (SwissProt) Secondary ID(s) of Target Chain>
P48355,Q59555

> <UniProt (SwissProt) Alternative ID(s) of Target Chain>


> <UniProt (TrEMBL) Submitted Name of Target Chain>


> <UniProt (TrEMBL) Entry Name of Target Chain>


> <UniProt (TrEMBL) Primary ID of Target Chain>


> <UniProt (TrEMBL) Secondary ID(s) of Target Chain>


> <UniProt (TrEMBL) Alternative ID(s) of Target Chain>


$$$$

  SciTegic12201612272D

 34 37  0  0  0  0            999 V2000
    7.4189    7.0332    0.0000 C   0  0
    7.5821    5.5421    0.0000 C   0  0
    6.3724    4.6552    0.0000 C   0  0
    5.0044    5.2582    0.0000 C   0  0
    4.8363    6.7505    0.0000 C   0  0
    6.0460    7.6374    0.0000 N   0  0
    8.6275    7.9231    0.0000 C   0  0
    9.7266    7.4417    0.0000 O   0  0
    8.4620    9.4148    0.0000 N   0  0
    3.6243    2.9682    0.0000 S   0  0
    3.7308    4.4645    0.0000 C   0  0
    2.3406    5.0280    0.0000 N   0  0
    1.3751    3.8801    0.0000 C   0  0
    2.1749    2.6315    0.0000 C   0  0
    0.2917   -0.7475    0.0000 C   0  0
    0.2917    0.7475    0.0000 C   0  0
   -1.0028    1.5132    0.0000 C   0  0
   -2.3155    0.7475    0.0000 C   0  0
   -2.3155   -0.7475    0.0000 C   0  0
   -1.0028   -1.5132    0.0000 N   0  0
    2.5889    0.0182    0.0000 N   0  0
    1.7138   -1.2033    0.0000 N   0  0
    1.7138    1.2033    0.0000 C   0  0
   -0.9971   -3.0138    0.0000 C   0  0
   -2.2935   -3.7700    0.0000 C   0  0
   -2.2889   -4.9699    0.0000 C   0  0
   -3.3560   -1.3452    0.0000 O   0  0
    9.6705   10.3047    0.0000 C   0  0
    9.5051   11.7964    0.0000 C   0  0
   10.7136   12.6863    0.0000 N   0  0
   10.5482   14.1780    0.0000 C   0  0
   11.5145   14.8895    0.0000 C   0  0
   12.0871   12.0813    0.0000 C   0  0
   12.2181   10.8885    0.0000 C   0  0
  1  2  1  0
  2  3  2  0
  3  4  1  0
  4  5  2  0
  5  6  1  0
  1  6  2  0
  1  7  1  0
  7  8  2  0
  7  9  1  0
 10 11  1  0
 11 12  2  0
 12 13  1  0
 13 14  2  0
 10 14  1  0
 15 16  2  0
 16 17  1  0
 17 18  2  0
 18 19  1  0
 19 20  1  0
 15 20  1  0
 21 22  1  0
 21 23  2  0
 15 22  1  0
 16 23  1  0
 24 25  1  0
 25 26  1  0
 20 24  1  0
 19 27  2  0
 14 23  1  0
  4 11  1  0
 28 29  1  0
 31 32  1  0
 30 31  1  0
 33 34  1  0
 30 33  1  0
 29 30  1  0
  9 28  1  0
M  END
> <From> 
www.bindingDB.org

> <BindingDB Reactant_set_id>
50498682

> <Ligand InChI>
InChI=1S/C24H29N7O2S/c1-4-12-31-20(32)10-8-17-21(28-29-22(17)31)19-15-27-24(34-19)16-7-9-18(26-14-16)23(33)25-11-13-30(5-2)6-3/h7-10,14-15H,4-6,11-13H2,1-3H3,(H,25,33)(H,28,29)

> <Ligand InChI Key>
JKVOHZBANWLFPR-UHFFFAOYSA-N

> <BindingDB MonomerID>
50173857

> <BindingDB Ligand Name>
CHEMBL3808789

> <Target Name Assigned by Curator or DataSource>
DNA gyrase

> <Target Source Organism According to Curator or DataSource>
Staphylococcus aureus

> <Ki (nM)>


> <IC50 (nM)>
<8.0

> <Kd (nM)>


> <EC50 (nM)>


> <kon (M-1-s-1)>


> <koff (s-1)>


> <pH>


> <Temp C>


> <Curation/DataSource>
ChEMBL

> <Article DOI>
10.1021/acsmedchemlett.5b00368

> <PMID>
27096044

> <PubChem AID>


> <Patent Number>


> <Authors>
Cross, JB; Zhang, J; Yang, Q; Mesleh, MF; Romero, JA; Wang, B; Bevan, D; Poutsiaka, KM; Epie, F; Moy, T; Daniel, A; Shotwell, J; Chamberlain, B; Carter, N; Andersen, O; Barker, J; Ryan, MD; Metcalf, CA; Silverman, J; Nguyen, K; Lippa, B; Dolle, RE

> <Institution>
Cubist Pharmaceuticals, Inc.

> <Link to Ligand in BindingDB>
http://www.bindingdb.org/bind/chemsearch/marvin/MolStructure.jsp?monomerid=50173857

> <Link to Ligand-Target Pair in BindingDB>
http://www.bindingdb.org/jsp/dbsearch/PrimarySearch_ki.jsp?energyterm=kJ/mole&tag=pol&polymerid=2626&target=DNA+gyrase&column=ki&startPg=0&Increment=50&submit=Search

> <Link to Ligand-Target Pair in BindingDB>
http://www.bindingdb.org/jsp/dbsearch/PrimarySearch_ki.jsp?energyterm=kJ/mole&tag=r21&monomerid=50173857&enzyme=DNA+gyrase&column=ki&startPg=0&Increment=50&submit=Search

> <Ligand HET ID in PDB>


> <PDB ID(s) for Ligand-Target Complex>


> <PubChem CID>
127045389

> <PubChem SID>
346548890

> <ChEBI ID of Ligand>


> <ChEMBL ID of Ligand>


> <DrugBank ID of Ligand>


> <IUPHAR_GRAC ID of Ligand>


> <KEGG ID of Ligand>


> <ZINC ID of Ligand>


> <Number of Protein Chains in Target (>1 implies a multichain complex)>
1

> <BindingDB Target Chain Sequence>
MVTALSDVNNTDNYGAGQIQVLEGLEAVRKRPGMYIGSTSERGLHHLVWEIVDNSIDEALAGYANQIEVVIEKDNWIKVTDNGRGIPVDIQEKMGRPAVEVILTVLHAGGKFGGGGYKVSGGLHGVGSSVVNALSQDLEVYVHRNETIYHQAYKKGVPQFDLKEVGTTDKTGTVIRFKADGEIFTETTVYNYETLQQRIRELAFLNKGIQITLRDERDEENVREDSYHYEGGIKSYVELLNENKEPIHDEPIYIHQSKDDIEVEIAIQYNSGYATNLLTYANNIHTYEGGTHEDGFKRALTRVLNSYGLSSKIMKEEKDRLSGEDTREGMTAIISIKHGDPQFEGQTKTKLGNSEVRQVVDKLFSEHFERFLYENPQVARTVVEKGIMAARARVAAKKAREVTRRKSALDVASLPGKLADCSSKSPEECEIFLVEGDSAGGSTKSGRDSRTQAILPLRGKILNVEKARLDRILNNNEIRQMITAFGTGIGGDFDLAKARYHKIVIMTDADVDGAHIRTLLLTFFYRFMRPLIEAGYVYIAQPPLYKLTQGKQKYYVYNDRELDKLKSELNPTPKWSIARYKGLGEMNADQLWETTMNPEHRALLQVKLEDAIEADQTFEMLMGDVVENRRQFIEDNAVYANLDF

> <PDB ID(s) of Target Chain>


> <UniProt (SwissProt) Recommended Name of Target Chain>
DNA gyrase subunit B

> <UniProt (SwissProt) Entry Name of Target Chain>
GYRB_STAAU

> <UniProt (SwissProt) Primary ID of Target Chain>
P0A0K8

> <UniProt (SwissProt) Secondary ID(s) of Target Chain>
P20832

> <UniProt (SwissProt) Alternative ID(s) of Target Chain>


> <UniProt (TrEMBL) Submitted Name of Target Chain>


> <UniProt (TrEMBL) Entry Name of Target Chain>


> <UniProt (TrEMBL) Primary ID of Target Chain>


> <UniProt (TrEMBL) Secondary ID(s) of Target Chain>


> <UniProt (TrEMBL) Alternative ID(s) of Target Chain>


$$$$

  SciTegic12201612272D

 29 32  0  0  0  0            999 V2000
    7.4189    7.0332    0.0000 C   0  0
    7.5821    5.5421    0.0000 C   0  0
    6.3724    4.6552    0.0000 C   0  0
    5.0044    5.2582    0.0000 C   0  0
    4.8363    6.7505    0.0000 C   0  0
    6.0460    7.6374    0.0000 N   0  0
    8.6275    7.9231    0.0000 C   0  0
    9.7266    7.4417    0.0000 O   0  0
    8.4620    9.4148    0.0000 N   0  0
    3.6243    2.9682    0.0000 S   0  0
    3.7308    4.4645    0.0000 C   0  0
    2.3406    5.0280    0.0000 N   0  0
    1.3751    3.8801    0.0000 C   0  0
    2.1749    2.6315    0.0000 C   0  0
    0.2917   -0.7475    0.0000 C   0  0
    0.2917    0.7475    0.0000 C   0  0
   -1.0028    1.5132    0.0000 C   0  0
   -2.3155    0.7475    0.0000 C   0  0
   -2.3155   -0.7475    0.0000 C   0  0
   -1.0028   -1.5132    0.0000 N   0  0
    2.5889    0.0182    0.0000 N   0  0
    1.7138   -1.2033    0.0000 N   0  0
    1.7138    1.2033    0.0000 C   0  0
   -0.9971   -3.0138    0.0000 C   0  0
   -2.2935   -3.7700    0.0000 C   0  0
   -2.2889   -4.9699    0.0000 C   0  0
   -3.3560   -1.3452    0.0000 O   0  0
    9.4283   10.1263    0.0000 C   0  0
    7.3628    9.8962    0.0000 C   0  0
  1  2  1  0
  2  3  2  0
  3  4  1  0
  4  5  2  0
  5  6  1  0
  1  6  2  0
  1  7  1  0
  7  8  2  0
  7  9  1  0
 10 11  1  0
 11 12  2  0
 12 13  1  0
 13 14  2  0
 10 14  1  0
 15 16  2  0
 16 17  1  0
 17 18  2  0
 18 19  1  0
 19 20  1  0
 15 20  1  0
 21 22  1  0
 21 23  2  0
 15 22  1  0
 16 23  1  0
 24 25  1  0
 25 26  1  0
 20 24  1  0
 19 27  2  0
 14 23  1  0
  4 11  1  0
  9 28  1  0
  9 29  1  0
M  END
> <From> 
www.bindingDB.org

> <BindingDB Reactant_set_id>
50498681

> <Ligand InChI>
InChI=1S/C20H20N6O2S/c1-4-9-26-16(27)8-6-13-17(23-24-18(13)26)15-11-22-19(29-15)12-5-7-14(21-10-12)20(28)25(2)3/h5-8,10-11H,4,9H2,1-3H3,(H,23,24)

> <Ligand InChI Key>
OWVRCTLRAWWWOH-UHFFFAOYSA-N

> <BindingDB MonomerID>
50173823

> <BindingDB Ligand Name>
CHEMBL3809278

> <Target Name Assigned by Curator or DataSource>
DNA gyrase

> <Target Source Organism According to Curator or DataSource>
Staphylococcus aureus

> <Ki (nM)>


> <IC50 (nM)>
 8.0

> <Kd (nM)>


> <EC50 (nM)>


> <kon (M-1-s-1)>


> <koff (s-1)>


> <pH>


> <Temp C>


> <Curation/DataSource>
ChEMBL

> <Article DOI>
10.1021/acsmedchemlett.5b00368

> <PMID>
27096044

> <PubChem AID>


> <Patent Number>


> <Authors>
Cross, JB; Zhang, J; Yang, Q; Mesleh, MF; Romero, JA; Wang, B; Bevan, D; Poutsiaka, KM; Epie, F; Moy, T; Daniel, A; Shotwell, J; Chamberlain, B; Carter, N; Andersen, O; Barker, J; Ryan, MD; Metcalf, CA; Silverman, J; Nguyen, K; Lippa, B; Dolle, RE

> <Institution>
Cubist Pharmaceuticals, Inc.

> <Link to Ligand in BindingDB>
http://www.bindingdb.org/bind/chemsearch/marvin/MolStructure.jsp?monomerid=50173823

> <Link to Ligand-Target Pair in BindingDB>
http://www.bindingdb.org/jsp/dbsearch/PrimarySearch_ki.jsp?energyterm=kJ/mole&tag=pol&polymerid=2626&target=DNA+gyrase&column=ki&startPg=0&Increment=50&submit=Search

> <Link to Ligand-Target Pair in BindingDB>
http://www.bindingdb.org/jsp/dbsearch/PrimarySearch_ki.jsp?energyterm=kJ/mole&tag=r21&monomerid=50173823&enzyme=DNA+gyrase&column=ki&startPg=0&Increment=50&submit=Search

> <Ligand HET ID in PDB>


> <PDB ID(s) for Ligand-Target Complex>


> <PubChem CID>
127045235

> <PubChem SID>
346548889

> <ChEBI ID of Ligand>


> <ChEMBL ID of Ligand>


> <DrugBank ID of Ligand>


> <IUPHAR_GRAC ID of Ligand>


> <KEGG ID of Ligand>


> <ZINC ID of Ligand>


> <Number of Protein Chains in Target (>1 implies a multichain complex)>
1

> <BindingDB Target Chain Sequence>
MVTALSDVNNTDNYGAGQIQVLEGLEAVRKRPGMYIGSTSERGLHHLVWEIVDNSIDEALAGYANQIEVVIEKDNWIKVTDNGRGIPVDIQEKMGRPAVEVILTVLHAGGKFGGGGYKVSGGLHGVGSSVVNALSQDLEVYVHRNETIYHQAYKKGVPQFDLKEVGTTDKTGTVIRFKADGEIFTETTVYNYETLQQRIRELAFLNKGIQITLRDERDEENVREDSYHYEGGIKSYVELLNENKEPIHDEPIYIHQSKDDIEVEIAIQYNSGYATNLLTYANNIHTYEGGTHEDGFKRALTRVLNSYGLSSKIMKEEKDRLSGEDTREGMTAIISIKHGDPQFEGQTKTKLGNSEVRQVVDKLFSEHFERFLYENPQVARTVVEKGIMAARARVAAKKAREVTRRKSALDVASLPGKLADCSSKSPEECEIFLVEGDSAGGSTKSGRDSRTQAILPLRGKILNVEKARLDRILNNNEIRQMITAFGTGIGGDFDLAKARYHKIVIMTDADVDGAHIRTLLLTFFYRFMRPLIEAGYVYIAQPPLYKLTQGKQKYYVYNDRELDKLKSELNPTPKWSIARYKGLGEMNADQLWETTMNPEHRALLQVKLEDAIEADQTFEMLMGDVVENRRQFIEDNAVYANLDF

> <PDB ID(s) of Target Chain>


> <UniProt (SwissProt) Recommended Name of Target Chain>
DNA gyrase subunit B

> <UniProt (SwissProt) Entry Name of Target Chain>
GYRB_STAAU

> <UniProt (SwissProt) Primary ID of Target Chain>
P0A0K8

> <UniProt (SwissProt) Secondary ID(s) of Target Chain>
P20832

> <UniProt (SwissProt) Alternative ID(s) of Target Chain>


> <UniProt (TrEMBL) Submitted Name of Target Chain>


> <UniProt (TrEMBL) Entry Name of Target Chain>


> <UniProt (TrEMBL) Primary ID of Target Chain>


> <UniProt (TrEMBL) Secondary ID(s) of Target Chain>


> <UniProt (TrEMBL) Alternative ID(s) of Target Chain>


$$$$

  SciTegic12201612272D

 31 35  0  0  0  0            999 V2000
    0.2917   -0.7475    0.0000 C   0  0
    0.2917    0.7475    0.0000 C   0  0
   -1.0028    1.5132    0.0000 C   0  0
   -2.3155    0.7475    0.0000 C   0  0
   -2.3155   -0.7475    0.0000 C   0  0
   -1.0028   -1.5132    0.0000 N   0  0
    2.5889    0.0182    0.0000 N   0  0
    1.7138   -1.2033    0.0000 N   0  0
    1.7138    1.2033    0.0000 C   0  0
   -3.3560   -1.3452    0.0000 O   0  0
   -0.9971   -3.0138    0.0000 C   0  0
   -2.2935   -3.7700    0.0000 C   0  0
   -2.2889   -4.9699    0.0000 C   0  0
    3.6243    2.9682    0.0000 S   0  0
    3.7308    4.4645    0.0000 C   0  0
    2.3406    5.0280    0.0000 N   0  0
    1.3751    3.8801    0.0000 C   0  0
    2.1749    2.6315    0.0000 C   0  0
    6.3724    4.6552    0.0000 C   0  0
    5.0044    5.2582    0.0000 C   0  0
    4.8363    6.7505    0.0000 C   0  0
    6.0460    7.6374    0.0000 C   0  0
    7.4189    7.0332    0.0000 C   0  0
    7.5821    5.5421    0.0000 N   0  0
    8.6311    7.9182    0.0000 C   0  0
   12.7457    6.0938    0.0000 O   0  0
   12.5876    7.5854    0.0000 C   0  0
   11.2168    8.1944    0.0000 C   0  0
   10.0039    7.3117    0.0000 N   0  0
   10.1621    5.8200    0.0000 C   0  0
   11.5329    5.2111    0.0000 C   0  0
  1  2  2  0
  2  3  1  0
  3  4  2  0
  4  5  1  0
  5  6  1  0
  1  6  1  0
  7  8  1  0
  7  9  2  0
  1  8  1  0
  2  9  1  0
  5 10  2  0
 11 12  1  0
 12 13  1  0
  6 11  1  0
 14 15  1  0
 15 16  2  0
 16 17  1  0
 17 18  2  0
 14 18  1  0
 19 20  1  0
 20 21  2  0
 21 22  1  0
 22 23  2  0
 23 24  1  0
 19 24  2  0
 26 27  1  0
 27 28  1  0
 28 29  1  0
 29 30  1  0
 30 31  1  0
 26 31  1  0
 25 29  1  0
 23 25  1  0
 15 20  1  0
  9 18  1  0
M  END
> <From> 
www.bindingDB.org

> <BindingDB Reactant_set_id>
50498677

> <Ligand InChI>
InChI=1S/C22H24N6O2S/c1-2-7-28-19(29)6-5-17-20(25-26-21(17)28)18-13-24-22(31-18)15-3-4-16(23-12-15)14-27-8-10-30-11-9-27/h3-6,12-13H,2,7-11,14H2,1H3,(H,25,26)

> <Ligand InChI Key>
GFZBBTMRVXMWSN-UHFFFAOYSA-N

> <BindingDB MonomerID>
50173720

> <BindingDB Ligand Name>
CHEMBL3809947

> <Target Name Assigned by Curator or DataSource>
DNA gyrase

> <Target Source Organism According to Curator or DataSource>
Staphylococcus aureus

> <Ki (nM)>


> <IC50 (nM)>
<8.0

> <Kd (nM)>


> <EC50 (nM)>


> <kon (M-1-s-1)>


> <koff (s-1)>


> <pH>


> <Temp C>


> <Curation/DataSource>
ChEMBL

> <Article DOI>
10.1021/acsmedchemlett.5b00368

> <PMID>
27096044

> <PubChem AID>


> <Patent Number>


> <Authors>
Cross, JB; Zhang, J; Yang, Q; Mesleh, MF; Romero, JA; Wang, B; Bevan, D; Poutsiaka, KM; Epie, F; Moy, T; Daniel, A; Shotwell, J; Chamberlain, B; Carter, N; Andersen, O; Barker, J; Ryan, MD; Metcalf, CA; Silverman, J; Nguyen, K; Lippa, B; Dolle, RE

> <Institution>
Cubist Pharmaceuticals, Inc.

> <Link to Ligand in BindingDB>
http://www.bindingdb.org/bind/chemsearch/marvin/MolStructure.jsp?monomerid=50173720

> <Link to Ligand-Target Pair in BindingDB>
http://www.bindingdb.org/jsp/dbsearch/PrimarySearch_ki.jsp?energyterm=kJ/mole&tag=pol&polymerid=2626&target=DNA+gyrase&column=ki&startPg=0&Increment=50&submit=Search

> <Link to Ligand-Target Pair in BindingDB>
http://www.bindingdb.org/jsp/dbsearch/PrimarySearch_ki.jsp?energyterm=kJ/mole&tag=r21&monomerid=50173720&enzyme=DNA+gyrase&column=ki&startPg=0&Increment=50&submit=Search

> <Ligand HET ID in PDB>


> <PDB ID(s) for Ligand-Target Complex>


> <PubChem CID>
127043626

> <PubChem SID>
104059584

> <ChEBI ID of Ligand>


> <ChEMBL ID of Ligand>


> <DrugBank ID of Ligand>


> <IUPHAR_GRAC ID of Ligand>


> <KEGG ID of Ligand>


> <ZINC ID of Ligand>
ZINC96309547

> <Number of Protein Chains in Target (>1 implies a multichain complex)>
1

> <BindingDB Target Chain Sequence>
MVTALSDVNNTDNYGAGQIQVLEGLEAVRKRPGMYIGSTSERGLHHLVWEIVDNSIDEALAGYANQIEVVIEKDNWIKVTDNGRGIPVDIQEKMGRPAVEVILTVLHAGGKFGGGGYKVSGGLHGVGSSVVNALSQDLEVYVHRNETIYHQAYKKGVPQFDLKEVGTTDKTGTVIRFKADGEIFTETTVYNYETLQQRIRELAFLNKGIQITLRDERDEENVREDSYHYEGGIKSYVELLNENKEPIHDEPIYIHQSKDDIEVEIAIQYNSGYATNLLTYANNIHTYEGGTHEDGFKRALTRVLNSYGLSSKIMKEEKDRLSGEDTREGMTAIISIKHGDPQFEGQTKTKLGNSEVRQVVDKLFSEHFERFLYENPQVARTVVEKGIMAARARVAAKKAREVTRRKSALDVASLPGKLADCSSKSPEECEIFLVEGDSAGGSTKSGRDSRTQAILPLRGKILNVEKARLDRILNNNEIRQMITAFGTGIGGDFDLAKARYHKIVIMTDADVDGAHIRTLLLTFFYRFMRPLIEAGYVYIAQPPLYKLTQGKQKYYVYNDRELDKLKSELNPTPKWSIARYKGLGEMNADQLWETTMNPEHRALLQVKLEDAIEADQTFEMLMGDVVENRRQFIEDNAVYANLDF

> <PDB ID(s) of Target Chain>


> <UniProt (SwissProt) Recommended Name of Target Chain>
DNA gyrase subunit B

> <UniProt (SwissProt) Entry Name of Target Chain>
GYRB_STAAU

> <UniProt (SwissProt) Primary ID of Target Chain>
P0A0K8

> <UniProt (SwissProt) Secondary ID(s) of Target Chain>
P20832

> <UniProt (SwissProt) Alternative ID(s) of Target Chain>


> <UniProt (TrEMBL) Submitted Name of Target Chain>


> <UniProt (TrEMBL) Entry Name of Target Chain>


> <UniProt (TrEMBL) Primary ID of Target Chain>


> <UniProt (TrEMBL) Secondary ID(s) of Target Chain>


> <UniProt (TrEMBL) Alternative ID(s) of Target Chain>


$$$$

  SciTegic12201612272D

 26 29  0  0  0  0            999 V2000
    0.2917   -0.7475    0.0000 C   0  0
    0.2917    0.7475    0.0000 C   0  0
   -1.0028    1.5132    0.0000 C   0  0
   -2.3155    0.7475    0.0000 C   0  0
   -2.3155   -0.7475    0.0000 C   0  0
   -1.0028   -1.5132    0.0000 N   0  0
    2.5889    0.0182    0.0000 N   0  0
    1.7138   -1.2033    0.0000 N   0  0
    1.7138    1.2033    0.0000 C   0  0
   -3.3560   -1.3452    0.0000 O   0  0
   -0.9971   -3.0138    0.0000 C   0  0
   -2.2935   -3.7700    0.0000 C   0  0
   -2.2889   -4.9699    0.0000 C   0  0
    3.6243    2.9682    0.0000 S   0  0
    3.7308    4.4645    0.0000 C   0  0
    2.3406    5.0280    0.0000 N   0  0
    1.3751    3.8801    0.0000 C   0  0
    2.1749    2.6315    0.0000 C   0  0
    6.3724    4.6552    0.0000 C   0  0
    5.0044    5.2582    0.0000 C   0  0
    4.8363    6.7505    0.0000 C   0  0
    6.0460    7.6374    0.0000 C   0  0
    7.4189    7.0332    0.0000 C   0  0
    7.5821    5.5421    0.0000 N   0  0
    8.6311    7.9182    0.0000 C   0  0
    9.7288    7.4333    0.0000 O   0  0
  1  2  2  0
  2  3  1  0
  3  4  2  0
  4  5  1  0
  5  6  1  0
  1  6  1  0
  7  8  1  0
  7  9  2  0
  1  8  1  0
  2  9  1  0
  5 10  2  0
 11 12  1  0
 12 13  1  0
  6 11  1  0
 14 15  1  0
 15 16  2  0
 16 17  1  0
 17 18  2  0
 14 18  1  0
 19 20  1  0
 20 21  2  0
 21 22  1  0
 22 23  2  0
 23 24  1  0
 19 24  2  0
 25 26  1  0
 23 25  1  0
 15 20  1  0
  9 18  1  0
M  END
> <From> 
www.bindingDB.org

> <BindingDB Reactant_set_id>
50498675

> <Ligand InChI>
InChI=1S/C18H17N5O2S/c1-2-7-23-15(25)6-5-13-16(21-22-17(13)23)14-9-20-18(26-14)11-3-4-12(10-24)19-8-11/h3-6,8-9,24H,2,7,10H2,1H3,(H,21,22)

> <Ligand InChI Key>
ZFXZVHJCPFMEGB-UHFFFAOYSA-N

> <BindingDB MonomerID>
50173718

> <BindingDB Ligand Name>
CHEMBL3809821

> <Target Name Assigned by Curator or DataSource>
DNA gyrase

> <Target Source Organism According to Curator or DataSource>
Staphylococcus aureus

> <Ki (nM)>


> <IC50 (nM)>
<8.0

> <Kd (nM)>


> <EC50 (nM)>


> <kon (M-1-s-1)>


> <koff (s-1)>


> <pH>


> <Temp C>


> <Curation/DataSource>
ChEMBL

> <Article DOI>
10.1021/acsmedchemlett.5b00368

> <PMID>
27096044

> <PubChem AID>


> <Patent Number>


> <Authors>
Cross, JB; Zhang, J; Yang, Q; Mesleh, MF; Romero, JA; Wang, B; Bevan, D; Poutsiaka, KM; Epie, F; Moy, T; Daniel, A; Shotwell, J; Chamberlain, B; Carter, N; Andersen, O; Barker, J; Ryan, MD; Metcalf, CA; Silverman, J; Nguyen, K; Lippa, B; Dolle, RE

> <Institution>
Cubist Pharmaceuticals, Inc.

> <Link to Ligand in BindingDB>
http://www.bindingdb.org/bind/chemsearch/marvin/MolStructure.jsp?monomerid=50173718

> <Link to Ligand-Target Pair in BindingDB>
http://www.bindingdb.org/jsp/dbsearch/PrimarySearch_ki.jsp?energyterm=kJ/mole&tag=pol&polymerid=2626&target=DNA+gyrase&column=ki&startPg=0&Increment=50&submit=Search

> <Link to Ligand-Target Pair in BindingDB>
http://www.bindingdb.org/jsp/dbsearch/PrimarySearch_ki.jsp?energyterm=kJ/mole&tag=r21&monomerid=50173718&enzyme=DNA+gyrase&column=ki&startPg=0&Increment=50&submit=Search

> <Ligand HET ID in PDB>


> <PDB ID(s) for Ligand-Target Complex>


> <PubChem CID>
127043447

> <PubChem SID>
104059582

> <ChEBI ID of Ligand>


> <ChEMBL ID of Ligand>


> <DrugBank ID of Ligand>


> <IUPHAR_GRAC ID of Ligand>


> <KEGG ID of Ligand>


> <ZINC ID of Ligand>
ZINC33979221

> <Number of Protein Chains in Target (>1 implies a multichain complex)>
1

> <BindingDB Target Chain Sequence>
MVTALSDVNNTDNYGAGQIQVLEGLEAVRKRPGMYIGSTSERGLHHLVWEIVDNSIDEALAGYANQIEVVIEKDNWIKVTDNGRGIPVDIQEKMGRPAVEVILTVLHAGGKFGGGGYKVSGGLHGVGSSVVNALSQDLEVYVHRNETIYHQAYKKGVPQFDLKEVGTTDKTGTVIRFKADGEIFTETTVYNYETLQQRIRELAFLNKGIQITLRDERDEENVREDSYHYEGGIKSYVELLNENKEPIHDEPIYIHQSKDDIEVEIAIQYNSGYATNLLTYANNIHTYEGGTHEDGFKRALTRVLNSYGLSSKIMKEEKDRLSGEDTREGMTAIISIKHGDPQFEGQTKTKLGNSEVRQVVDKLFSEHFERFLYENPQVARTVVEKGIMAARARVAAKKAREVTRRKSALDVASLPGKLADCSSKSPEECEIFLVEGDSAGGSTKSGRDSRTQAILPLRGKILNVEKARLDRILNNNEIRQMITAFGTGIGGDFDLAKARYHKIVIMTDADVDGAHIRTLLLTFFYRFMRPLIEAGYVYIAQPPLYKLTQGKQKYYVYNDRELDKLKSELNPTPKWSIARYKGLGEMNADQLWETTMNPEHRALLQVKLEDAIEADQTFEMLMGDVVENRRQFIEDNAVYANLDF

> <PDB ID(s) of Target Chain>


> <UniProt (SwissProt) Recommended Name of Target Chain>
DNA gyrase subunit B

> <UniProt (SwissProt) Entry Name of Target Chain>
GYRB_STAAU

> <UniProt (SwissProt) Primary ID of Target Chain>
P0A0K8

> <UniProt (SwissProt) Secondary ID(s) of Target Chain>
P20832

> <UniProt (SwissProt) Alternative ID(s) of Target Chain>


> <UniProt (TrEMBL) Submitted Name of Target Chain>


> <UniProt (TrEMBL) Entry Name of Target Chain>


> <UniProt (TrEMBL) Primary ID of Target Chain>


> <UniProt (TrEMBL) Secondary ID(s) of Target Chain>


> <UniProt (TrEMBL) Alternative ID(s) of Target Chain>


$$$$

  SciTegic12201612272D

 25 28  0  0  0  0            999 V2000
    0.2917   -0.7475    0.0000 C   0  0
    0.2917    0.7475    0.0000 C   0  0
   -1.0028    1.5132    0.0000 C   0  0
   -2.3155    0.7475    0.0000 C   0  0
   -2.3155   -0.7475    0.0000 C   0  0
   -1.0028   -1.5132    0.0000 N   0  0
    2.5889    0.0182    0.0000 N   0  0
    1.7138   -1.2033    0.0000 N   0  0
    1.7138    1.2033    0.0000 C   0  0
   -3.3560   -1.3452    0.0000 O   0  0
   -0.9971   -3.0138    0.0000 C   0  0
   -2.2935   -3.7700    0.0000 C   0  0
   -2.2889   -4.9699    0.0000 C   0  0
    3.6243    2.9682    0.0000 S   0  0
    3.7308    4.4645    0.0000 C   0  0
    2.3406    5.0280    0.0000 N   0  0
    1.3751    3.8801    0.0000 C   0  0
    2.1749    2.6315    0.0000 C   0  0
    6.3724    4.6552    0.0000 C   0  0
    5.0044    5.2582    0.0000 C   0  0
    4.8363    6.7505    0.0000 C   0  0
    6.0460    7.6374    0.0000 C   0  0
    7.4189    7.0332    0.0000 C   0  0
    7.5821    5.5421    0.0000 N   0  0
    8.3867    7.7428    0.0000 C   0  0
  1  2  2  0
  2  3  1  0
  3  4  2  0
  4  5  1  0
  5  6  1  0
  1  6  1  0
  7  8  1  0
  7  9  2  0
  1  8  1  0
  2  9  1  0
  5 10  2  0
 11 12  1  0
 12 13  1  0
  6 11  1  0
 14 15  1  0
 15 16  2  0
 16 17  1  0
 17 18  2  0
 14 18  1  0
 19 20  1  0
 20 21  2  0
 21 22  1  0
 22 23  2  0
 23 24  1  0
 19 24  2  0
 23 25  1  0
 15 20  1  0
  9 18  1  0
M  END
> <From> 
www.bindingDB.org

> <BindingDB Reactant_set_id>
50498674

> <Ligand InChI>
InChI=1S/C18H17N5OS/c1-3-8-23-15(24)7-6-13-16(21-22-17(13)23)14-10-20-18(25-14)12-5-4-11(2)19-9-12/h4-7,9-10H,3,8H2,1-2H3,(H,21,22)

> <Ligand InChI Key>
WJUZSDOIDKANHJ-UHFFFAOYSA-N

> <BindingDB MonomerID>
50173644

> <BindingDB Ligand Name>
CHEMBL3810048

> <Target Name Assigned by Curator or DataSource>
DNA gyrase

> <Target Source Organism According to Curator or DataSource>
Staphylococcus aureus

> <Ki (nM)>


> <IC50 (nM)>
<8.0

> <Kd (nM)>


> <EC50 (nM)>


> <kon (M-1-s-1)>


> <koff (s-1)>


> <pH>


> <Temp C>


> <Curation/DataSource>
ChEMBL

> <Article DOI>
10.1021/acsmedchemlett.5b00368

> <PMID>
27096044

> <PubChem AID>


> <Patent Number>


> <Authors>
Cross, JB; Zhang, J; Yang, Q; Mesleh, MF; Romero, JA; Wang, B; Bevan, D; Poutsiaka, KM; Epie, F; Moy, T; Daniel, A; Shotwell, J; Chamberlain, B; Carter, N; Andersen, O; Barker, J; Ryan, MD; Metcalf, CA; Silverman, J; Nguyen, K; Lippa, B; Dolle, RE

> <Institution>
Cubist Pharmaceuticals, Inc.

> <Link to Ligand in BindingDB>
http://www.bindingdb.org/bind/chemsearch/marvin/MolStructure.jsp?monomerid=50173644

> <Link to Ligand-Target Pair in BindingDB>
http://www.bindingdb.org/jsp/dbsearch/PrimarySearch_ki.jsp?energyterm=kJ/mole&tag=pol&polymerid=2626&target=DNA+gyrase&column=ki&startPg=0&Increment=50&submit=Search

> <Link to Ligand-Target Pair in BindingDB>
http://www.bindingdb.org/jsp/dbsearch/PrimarySearch_ki.jsp?energyterm=kJ/mole&tag=r21&monomerid=50173644&enzyme=DNA+gyrase&column=ki&startPg=0&Increment=50&submit=Search

> <Ligand HET ID in PDB>


> <PDB ID(s) for Ligand-Target Complex>


> <PubChem CID>
127043439

> <PubChem SID>
104059508

> <ChEBI ID of Ligand>


> <ChEMBL ID of Ligand>


> <DrugBank ID of Ligand>


> <IUPHAR_GRAC ID of Ligand>


> <KEGG ID of Ligand>


> <ZINC ID of Ligand>
ZINC13673441

> <Number of Protein Chains in Target (>1 implies a multichain complex)>
1

> <BindingDB Target Chain Sequence>
MVTALSDVNNTDNYGAGQIQVLEGLEAVRKRPGMYIGSTSERGLHHLVWEIVDNSIDEALAGYANQIEVVIEKDNWIKVTDNGRGIPVDIQEKMGRPAVEVILTVLHAGGKFGGGGYKVSGGLHGVGSSVVNALSQDLEVYVHRNETIYHQAYKKGVPQFDLKEVGTTDKTGTVIRFKADGEIFTETTVYNYETLQQRIRELAFLNKGIQITLRDERDEENVREDSYHYEGGIKSYVELLNENKEPIHDEPIYIHQSKDDIEVEIAIQYNSGYATNLLTYANNIHTYEGGTHEDGFKRALTRVLNSYGLSSKIMKEEKDRLSGEDTREGMTAIISIKHGDPQFEGQTKTKLGNSEVRQVVDKLFSEHFERFLYENPQVARTVVEKGIMAARARVAAKKAREVTRRKSALDVASLPGKLADCSSKSPEECEIFLVEGDSAGGSTKSGRDSRTQAILPLRGKILNVEKARLDRILNNNEIRQMITAFGTGIGGDFDLAKARYHKIVIMTDADVDGAHIRTLLLTFFYRFMRPLIEAGYVYIAQPPLYKLTQGKQKYYVYNDRELDKLKSELNPTPKWSIARYKGLGEMNADQLWETTMNPEHRALLQVKLEDAIEADQTFEMLMGDVVENRRQFIEDNAVYANLDF

> <PDB ID(s) of Target Chain>


> <UniProt (SwissProt) Recommended Name of Target Chain>
DNA gyrase subunit B

> <UniProt (SwissProt) Entry Name of Target Chain>
GYRB_STAAU

> <UniProt (SwissProt) Primary ID of Target Chain>
P0A0K8

> <UniProt (SwissProt) Secondary ID(s) of Target Chain>
P20832

> <UniProt (SwissProt) Alternative ID(s) of Target Chain>


> <UniProt (TrEMBL) Submitted Name of Target Chain>


> <UniProt (TrEMBL) Entry Name of Target Chain>


> <UniProt (TrEMBL) Primary ID of Target Chain>


> <UniProt (TrEMBL) Secondary ID(s) of Target Chain>


> <UniProt (TrEMBL) Alternative ID(s) of Target Chain>


$$$$

  SciTegic09291413392D

 33 36  0  0  0  0            999 V2000
   11.6388  -25.3990    0.0000 C   0  0
   13.7629  -24.1690    0.0000 C   0  0
   13.7617  -24.9885    0.0000 C   0  0
   14.4698  -25.3975    0.0000 N   0  0
   14.4680  -23.7602    0.0000 C   0  0
   15.1766  -24.1654    0.0000 C   0  0
   15.1815  -24.9886    0.0000 C   0  0
   15.9658  -25.2384    0.0000 S   0  0
   16.4458  -24.5696    0.0000 C   0  0
   15.9580  -23.9065    0.0000 N   0  0
   17.2630  -24.5647    0.0000 N   0  0
   17.6674  -23.8546    0.0000 C   0  0
   18.4846  -23.8498    0.0000 N   0  0
   17.2546  -23.1493    0.0000 O   0  0
   18.8890  -23.1397    0.0000 C   0  0
   19.7062  -23.1349    0.0000 C   0  0
   13.0537  -25.3966    0.0000 O   0  0
   12.3463  -24.9874    0.0000 C   0  0
   10.3441  -25.6786    0.0000 C   0  0
   10.7557  -26.3862    0.0000 O   0  0
   11.5558  -26.2133    0.0000 C   0  0
   10.9394  -24.9910    0.0000 C   0  0
   13.0572  -23.7608    0.0000 C   0  0
   13.0583  -22.9425    0.0000 C   0  0
   12.3513  -22.5341    0.0000 C   0  0
   11.6427  -22.9429    0.0000 N   0  0
   11.6456  -23.7644    0.0000 C   0  0
   12.3531  -24.1690    0.0000 C   0  0
   12.3515  -21.7169    0.0000 O   0  0
   10.9344  -22.5354    0.0000 C   0  0
   10.9394  -24.1756    0.0000 C   0  0
   10.2302  -23.7697    0.0000 C   0  0
   10.5244  -24.8789    0.0000 C   0  0
  2  3  2  0
  3  4  1  0
  4  7  2  0
  6  5  2  0
  5  2  1  0
  6  7  1  0
  7  8  1  0
  8  9  1  0
  9 10  2  0
 10  6  1  0
  9 11  1  0
 11 12  1  0
 12 13  1  0
 12 14  2  0
 13 15  1  0
 15 16  1  0
  3 17  1  0
 17 18  1  0
 18  1  1  0
  1 22  1  0
 22 19  1  0
 19 20  1  0
 20 21  1  0
 21  1  1  0
 23 24  2  0
 24 25  1  0
 25 26  1  0
 26 27  1  0
 27 28  2  0
 28 23  1  0
  2 23  1  0
 25 29  2  0
 26 30  1  0
 27 31  1  0
 31 32  1  0
 31 33  1  0
M  END
> <From> 
www.bindingDB.org

> <BindingDB Reactant_set_id>
50089953

> <Ligand InChI>
InChI=1S/C23H29N5O4S/c1-5-24-22(30)27-23-25-17-10-16(15-8-18(13(2)3)28(4)19(29)9-15)20(26-21(17)33-23)32-12-14-6-7-31-11-14/h8-10,13-14H,5-7,11-12H2,1-4H3,(H2,24,25,27,30)

> <Ligand InChI Key>
JYZIAACRFMAANE-UHFFFAOYSA-N

> <BindingDB MonomerID>
50010375

> <BindingDB Ligand Name>
CHEMBL3263617

> <Target Name Assigned by Curator or DataSource>
DNA gyrase subunit B

> <Target Source Organism According to Curator or DataSource>


> <Ki (nM)>


> <IC50 (nM)>
 8.0

> <Kd (nM)>


> <EC50 (nM)>


> <kon (M-1-s-1)>


> <koff (s-1)>


> <pH>


> <Temp C>


> <Curation/DataSource>
ChEMBL

> <Article DOI>
10.1021/jm401268f

> <PMID>
24088190

> <PubChem AID>


> <Patent Number>


> <Authors>
Ahuja, V; Ahuja, V; Basavarajappa, H; Basavarajappa, H; P, SH; P, SH; Boriack-Sjodin, PA; Boriack-Sjodin, PA; McKinney, D; McKinney, D; Ganguly, S; Ganguly, S; Kranthi, U; Kranthi, U; Gaonkar, S; Gaonkar, S; Jena, Lk; Jena, Lk; Ghorpade, SR; Ghorpade, SR; Ghosh, A; Ghosh, A; Barde, S; Barde, S; Kale, MG; Kale, MG; Koushik, K; Koushik, K; Kumar, CN; Kumar, CN; Manjunatha, MR; Manjunatha, MR; Ogg, D; Ogg, D; Panduga, V; Panduga, V; Ramya, VK; Ramya, VK; Reddy, J; Reddy, J; Kumar, KN; Kumar, KN; Giridhar, J; Giridhar, J; Rudrapatna, S; Rudrapatna, S; Sharma, S; Sharma, S; Tucker, JA; Tucker, JA; Vachaspati, P; Vachaspati, P; Waterson, D; Waterson, D; de Sousa, SM; de Sousa, SM

> <Institution>
AstraZeneca India Pvt. Ltd.

> <Link to Ligand in BindingDB>
http://www.bindingdb.org/bind/chemsearch/marvin/MolStructure.jsp?monomerid=50010375

> <Link to Ligand-Target Pair in BindingDB>
http://www.bindingdb.org/jsp/dbsearch/PrimarySearch_ki.jsp?energyterm=kJ/mole&tag=pol&polymerid=50006452&target=DNA+gyrase+subunit+B&column=ki&startPg=0&Increment=50&submit=Search

> <Link to Ligand-Target Pair in BindingDB>
http://www.bindingdb.org/jsp/dbsearch/PrimarySearch_ki.jsp?energyterm=kJ/mole&tag=r21&monomerid=50010375&enzyme=DNA+gyrase+subunit+B&column=ki&startPg=0&Increment=50&submit=Search

> <Ligand HET ID in PDB>


> <PDB ID(s) for Ligand-Target Complex>


> <PubChem CID>
72713517

> <PubChem SID>
103923189

> <ChEBI ID of Ligand>


> <ChEMBL ID of Ligand>
CHEMBL3263617

> <DrugBank ID of Ligand>


> <IUPHAR_GRAC ID of Ligand>


> <KEGG ID of Ligand>


> <ZINC ID of Ligand>
ZINC13446883

> <Number of Protein Chains in Target (>1 implies a multichain complex)>
1

> <BindingDB Target Chain Sequence>
MAAQKNNAPKEYGADSITILEGLEAVRKRPGMYIGSTGERGLHHLIWEVVDNAVDEAMAGFATRVDVKIHADGSVEVRDDGRGIPVEMHATGMPTIDVVMTQLHAGGKFDGETYAVSGGLHGVGVSVVNALSTRLEATVLRDGYEWFQYYDRSVPGKLKQGGETKETGTTIRFWADPEIFETTDYNFETVARRLQEMAFLNKGLTIELTDERVTAEEVVDDVVKDTAEAPKTADEKAAEATGPSKVKHRVFHYPGGLVDYVKHINRTKTPIQQSIIDFDGKGPGHEVEIAMQWNAGYSESVHTFANTINTHEGGTHEEGFRAALTSVVNRYAKDKKLLKDKDPNLTGDDIREGLAAVISVKVAEPQFEGQTKTKLGNTEVKSFVQKICNEQLQHWFEANPAEAKTVVNKAVSSAQARIAARKARELVRRKSATDIGGLPGKLADCRSTDPSKSELYVVEGDSAGGSAKSGRDSMFQAILPLRGKIINVEKARIDRVLKNTEVQSIITALGTGIHDEFDISKLRYHKIVLMADADVDGQHISTLLLTLLFRFMKPLVENGHIFLAQPPLYKLKWQRSEPEFAYSDRERDGLLEAGRAAGKKINVDDGIQRYKGLGEMDAKELWETTMDPSVRVLRQVTLDDAAAADELFSILMGEDVEARRSFITRNAKDVRFLDV

> <PDB ID(s) of Target Chain>
4BAE

> <UniProt (SwissProt) Recommended Name of Target Chain>
DNA gyrase subunit B

> <UniProt (SwissProt) Entry Name of Target Chain>
GYRB_MYCSM

> <UniProt (SwissProt) Primary ID of Target Chain>
P0C559

> <UniProt (SwissProt) Secondary ID(s) of Target Chain>
P48355,Q59555

> <UniProt (SwissProt) Alternative ID(s) of Target Chain>


> <UniProt (TrEMBL) Submitted Name of Target Chain>


> <UniProt (TrEMBL) Entry Name of Target Chain>


> <UniProt (TrEMBL) Primary ID of Target Chain>


> <UniProt (TrEMBL) Secondary ID(s) of Target Chain>


> <UniProt (TrEMBL) Alternative ID(s) of Target Chain>


$$$$

  SciTegic09291413392D

 30 33  0  0  0  0            999 V2000
   23.0629   -2.3567    0.0000 C   0  0
   25.1871   -1.1267    0.0000 C   0  0
   25.1859   -1.9462    0.0000 C   0  0
   25.8940   -2.3552    0.0000 N   0  0
   25.8922   -0.7178    0.0000 C   0  0
   26.6008   -1.1231    0.0000 C   0  0
   26.6056   -1.9463    0.0000 C   0  0
   27.3900   -2.1961    0.0000 S   0  0
   27.8700   -1.5272    0.0000 C   0  0
   27.3822   -0.8642    0.0000 N   0  0
   24.4813   -0.7184    0.0000 C   0  0
   24.4825    0.1065    0.0000 C   0  0
   23.7755    0.5153    0.0000 N   0  0
   23.0669    0.1070    0.0000 C   0  0
   23.0697   -0.7220    0.0000 C   0  0
   28.6872   -1.5224    0.0000 N   0  0
   29.0916   -0.8123    0.0000 C   0  0
   29.9088   -0.8075    0.0000 N   0  0
   28.6788   -0.1070    0.0000 O   0  0
   30.3132   -0.0974    0.0000 C   0  0
   31.1303   -0.0926    0.0000 C   0  0
   23.7711   -1.1279    0.0000 C   0  0
   24.4779   -2.3543    0.0000 O   0  0
   23.7705   -1.9451    0.0000 C   0  0
   22.3140   -2.0262    0.0000 C   0  0
   21.7683   -2.6363    0.0000 C   0  0
   22.1799   -3.3439    0.0000 O   0  0
   22.9800   -3.1710    0.0000 C   0  0
   22.3625   -1.1315    0.0000 O   0  0
   21.6543   -0.7238    0.0000 C   0  0
  2  3  2  0
  3  4  1  0
  4  7  2  0
  6  5  2  0
  5  2  1  0
  6  7  1  0
  7  8  1  0
  8  9  1  0
  9 10  2  0
 10  6  1  0
 11 12  2  0
 12 13  1  0
 13 14  2  0
 14 15  1  0
 15 22  2  0
 22 11  1  0
  2 11  1  0
  9 16  1  0
 16 17  1  0
 17 18  1  0
 17 19  2  0
 18 20  1  0
 20 21  1  0
  3 23  1  0
 23 24  1  0
 24  1  1  0
  1 25  1  0
 25 26  1  0
 26 27  1  0
 27 28  1  0
 28  1  1  0
 15 29  1  0
 29 30  1  0
M  END
> <From> 
www.bindingDB.org

> <BindingDB Reactant_set_id>
50089926

> <Ligand InChI>
InChI=1S/C20H23N5O4S/c1-3-22-19(26)25-20-23-16-7-15(13-6-14(27-2)9-21-8-13)17(24-18(16)30-20)29-11-12-4-5-28-10-12/h6-9,12H,3-5,10-11H2,1-2H3,(H2,22,23,25,26)

> <Ligand InChI Key>
MNPQWORSSDHHJZ-UHFFFAOYSA-N

> <BindingDB MonomerID>
50010364

> <BindingDB Ligand Name>
CHEMBL3263606

> <Target Name Assigned by Curator or DataSource>
DNA gyrase subunit B

> <Target Source Organism According to Curator or DataSource>


> <Ki (nM)>


> <IC50 (nM)>
 8.0

> <Kd (nM)>


> <EC50 (nM)>


> <kon (M-1-s-1)>


> <koff (s-1)>


> <pH>


> <Temp C>


> <Curation/DataSource>
ChEMBL

> <Article DOI>
10.1021/jm401268f

> <PMID>
24088190

> <PubChem AID>


> <Patent Number>


> <Authors>
Ahuja, V; Ahuja, V; Basavarajappa, H; Basavarajappa, H; P, SH; P, SH; Boriack-Sjodin, PA; Boriack-Sjodin, PA; McKinney, D; McKinney, D; Ganguly, S; Ganguly, S; Kranthi, U; Kranthi, U; Gaonkar, S; Gaonkar, S; Jena, Lk; Jena, Lk; Ghorpade, SR; Ghorpade, SR; Ghosh, A; Ghosh, A; Barde, S; Barde, S; Kale, MG; Kale, MG; Koushik, K; Koushik, K; Kumar, CN; Kumar, CN; Manjunatha, MR; Manjunatha, MR; Ogg, D; Ogg, D; Panduga, V; Panduga, V; Ramya, VK; Ramya, VK; Reddy, J; Reddy, J; Kumar, KN; Kumar, KN; Giridhar, J; Giridhar, J; Rudrapatna, S; Rudrapatna, S; Sharma, S; Sharma, S; Tucker, JA; Tucker, JA; Vachaspati, P; Vachaspati, P; Waterson, D; Waterson, D; de Sousa, SM; de Sousa, SM

> <Institution>
AstraZeneca India Pvt. Ltd.

> <Link to Ligand in BindingDB>
http://www.bindingdb.org/bind/chemsearch/marvin/MolStructure.jsp?monomerid=50010364

> <Link to Ligand-Target Pair in BindingDB>
http://www.bindingdb.org/jsp/dbsearch/PrimarySearch_ki.jsp?energyterm=kJ/mole&tag=pol&polymerid=50006452&target=DNA+gyrase+subunit+B&column=ki&startPg=0&Increment=50&submit=Search

> <Link to Ligand-Target Pair in BindingDB>
http://www.bindingdb.org/jsp/dbsearch/PrimarySearch_ki.jsp?energyterm=kJ/mole&tag=r21&monomerid=50010364&enzyme=DNA+gyrase+subunit+B&column=ki&startPg=0&Increment=50&submit=Search

> <Ligand HET ID in PDB>


> <PDB ID(s) for Ligand-Target Complex>


> <PubChem CID>
72713305

> <PubChem SID>
103923178

> <ChEBI ID of Ligand>


> <ChEMBL ID of Ligand>
CHEMBL3263606

> <DrugBank ID of Ligand>


> <IUPHAR_GRAC ID of Ligand>


> <KEGG ID of Ligand>


> <ZINC ID of Ligand>
ZINC26962641

> <Number of Protein Chains in Target (>1 implies a multichain complex)>
1

> <BindingDB Target Chain Sequence>
MAAQKNNAPKEYGADSITILEGLEAVRKRPGMYIGSTGERGLHHLIWEVVDNAVDEAMAGFATRVDVKIHADGSVEVRDDGRGIPVEMHATGMPTIDVVMTQLHAGGKFDGETYAVSGGLHGVGVSVVNALSTRLEATVLRDGYEWFQYYDRSVPGKLKQGGETKETGTTIRFWADPEIFETTDYNFETVARRLQEMAFLNKGLTIELTDERVTAEEVVDDVVKDTAEAPKTADEKAAEATGPSKVKHRVFHYPGGLVDYVKHINRTKTPIQQSIIDFDGKGPGHEVEIAMQWNAGYSESVHTFANTINTHEGGTHEEGFRAALTSVVNRYAKDKKLLKDKDPNLTGDDIREGLAAVISVKVAEPQFEGQTKTKLGNTEVKSFVQKICNEQLQHWFEANPAEAKTVVNKAVSSAQARIAARKARELVRRKSATDIGGLPGKLADCRSTDPSKSELYVVEGDSAGGSAKSGRDSMFQAILPLRGKIINVEKARIDRVLKNTEVQSIITALGTGIHDEFDISKLRYHKIVLMADADVDGQHISTLLLTLLFRFMKPLVENGHIFLAQPPLYKLKWQRSEPEFAYSDRERDGLLEAGRAAGKKINVDDGIQRYKGLGEMDAKELWETTMDPSVRVLRQVTLDDAAAADELFSILMGEDVEARRSFITRNAKDVRFLDV

> <PDB ID(s) of Target Chain>
4BAE

> <UniProt (SwissProt) Recommended Name of Target Chain>
DNA gyrase subunit B

> <UniProt (SwissProt) Entry Name of Target Chain>
GYRB_MYCSM

> <UniProt (SwissProt) Primary ID of Target Chain>
P0C559

> <UniProt (SwissProt) Secondary ID(s) of Target Chain>
P48355,Q59555

> <UniProt (SwissProt) Alternative ID(s) of Target Chain>


> <UniProt (TrEMBL) Submitted Name of Target Chain>


> <UniProt (TrEMBL) Entry Name of Target Chain>


> <UniProt (TrEMBL) Primary ID of Target Chain>


> <UniProt (TrEMBL) Secondary ID(s) of Target Chain>


> <UniProt (TrEMBL) Alternative ID(s) of Target Chain>


$$$$

  Mrv0541 11241412072D          

 32 35  0  0  0  0            999 V2000
   -0.8918  -11.5391    0.0000 C   0  0  0  0  0  0  0  0  0  0  0  0
   -0.1755  -11.1258    0.0000 C   0  0  0  0  0  0  0  0  0  0  0  0
   -0.1784  -10.2953    0.0000 C   0  0  0  0  0  0  0  0  0  0  0  0
   -0.8936   -9.8863    0.0000 N   0  0  0  0  0  0  0  0  0  0  0  0
   -1.6066  -11.1262    0.0000 C   0  0  0  0  0  0  0  0  0  0  0  0
   -1.6053  -10.2974    0.0000 C   0  0  0  0  0  0  0  0  0  0  0  0
   -2.3933  -10.0401    0.0000 N   0  0  0  0  0  0  0  0  0  0  0  0
   -2.8815  -10.7100    0.0000 C   0  0  0  0  0  0  0  0  0  0  0  0
   -2.3953  -11.3811    0.0000 C   0  0  0  0  0  0  0  0  0  0  0  0
    0.5360  -11.5364    0.0000 C   0  0  0  0  0  0  0  0  0  0  0  0
    0.5359  -12.3624    0.0000 C   0  0  0  0  0  0  0  0  0  0  0  0
    1.2502  -12.7737    0.0000 N   0  0  0  0  0  0  0  0  0  0  0  0
    1.9649  -12.3600    0.0000 C   0  0  0  0  0  0  0  0  0  0  0  0
    1.9609  -11.5308    0.0000 C   0  0  0  0  0  0  0  0  0  0  0  0
    1.2462  -11.1233    0.0000 C   0  0  0  0  0  0  0  0  0  0  0  0
    2.6758  -11.1133    0.0000 C   0  0  0  0  0  0  0  0  0  0  0  0
    3.3924  -11.5222    0.0000 N   0  0  0  0  0  0  0  0  0  0  0  0
    2.6716  -10.2884    0.0000 O   0  0  0  0  0  0  0  0  0  0  0  0
   -0.8897  -12.3603    0.0000 N   0  0  0  0  0  0  0  0  0  0  0  0
   -1.5572  -12.8450    0.0000 C   0  0  0  0  0  0  0  0  0  0  0  0
   -1.3025  -13.6296    0.0000 C   0  0  0  0  0  0  0  0  0  0  0  0
   -0.4775  -13.6298    0.0000 C   0  0  0  0  0  0  0  0  0  0  0  0
   -0.2225  -12.8454    0.0000 N   0  0  0  0  0  0  0  0  0  0  0  0
    0.0073  -14.2973    0.0000 C   0  0  0  0  0  0  0  0  0  0  0  0
   -0.3284  -15.0509    0.0000 F   0  0  0  0  0  0  0  0  0  0  0  0
    0.8277  -14.2111    0.0000 F   0  0  0  0  0  0  0  0  0  0  0  0
    0.4125  -15.0069    0.0000 F   0  0  0  0  0  0  0  0  0  0  0  0
   -3.7064  -10.7088    0.0000 C   0  0  0  0  0  0  0  0  0  0  0  0
   -4.1178   -9.9937    0.0000 N   0  0  0  0  0  0  0  0  0  0  0  0
   -4.1199  -11.4225    0.0000 O   0  0  0  0  0  0  0  0  0  0  0  0
   -4.9427   -9.9925    0.0000 C   0  0  0  0  0  0  0  0  0  0  0  0
   -5.3542   -9.2775    0.0000 C   0  0  0  0  0  0  0  0  0  0  0  0
  2 10  1  0  0  0  0
  3  4  1  0  0  0  0
  6  7  1  0  0  0  0
  7  8  1  0  0  0  0
 16 17  1  0  0  0  0
 16 18  2  0  0  0  0
 14 16  1  0  0  0  0
 19 20  1  0  0  0  0
  8  9  2  0  0  0  0
  9  5  1  0  0  0  0
  4  6  2  0  0  0  0
  5  6  1  0  0  0  0
 10 11  2  0  0  0  0
 20 21  2  0  0  0  0
 21 22  1  0  0  0  0
 22 23  2  0  0  0  0
 23 19  1  0  0  0  0
  1 19  1  0  0  0  0
  1  2  1  0  0  0  0
 22 24  1  0  0  0  0
 11 12  1  0  0  0  0
 24 25  1  0  0  0  0
  5  1  2  0  0  0  0
 24 26  1  0  0  0  0
 12 13  2  0  0  0  0
 24 27  1  0  0  0  0
  2  3  2  0  0  0  0
  8 28  1  0  0  0  0
 13 14  1  0  0  0  0
 28 29  1  0  0  0  0
 28 30  2  0  0  0  0
 14 15  2  0  0  0  0
 29 31  1  0  0  0  0
 15 10  1  0  0  0  0
 31 32  1  0  0  0  0
M  END
> <From> 
www.bindingDB.org

> <BindingDB Reactant_set_id>
50945994

> <Ligand InChI>
InChI=1S/C20H16F3N7O2/c1-2-26-19(32)14-6-12-16(30-4-3-15(29-30)20(21,22)23)13(9-27-18(12)28-14)10-5-11(17(24)31)8-25-7-10/h3-9H,2H2,1H3,(H2,24,31)(H,26,32)(H,27,28)

> <Ligand InChI Key>
PPUPPIFFQORBOU-UHFFFAOYSA-N

> <BindingDB MonomerID>
50388097

> <BindingDB Ligand Name>
CHEMBL2059375

> <Target Name Assigned by Curator or DataSource>
DNA Gyrase Subunit B

> <Target Source Organism According to Curator or DataSource>
Staphylococcus aureus

> <Ki (nM)>


> <IC50 (nM)>
 9

> <Kd (nM)>


> <EC50 (nM)>


> <kon (M-1-s-1)>


> <koff (s-1)>


> <pH>


> <Temp C>


> <Curation/DataSource>
ChEMBL

> <Article DOI>
10.1016/j.bmcl.2012.05.128

> <PMID>
22814212

> <PubChem AID>


> <Patent Number>


> <Authors>
Manchester, JI; Dussault, DD; Rose, JA; Boriack-Sjodin, PA; Uria-Nickelsen, M; Ioannidis, G; Bist, S; Fleming, P; Hull, KG

> <Institution>
AstraZeneca

> <Link to Ligand in BindingDB>
http://www.bindingdb.org/bind/chemsearch/marvin/MolStructure.jsp?monomerid=50388097

> <Link to Ligand-Target Pair in BindingDB>
http://www.bindingdb.org/jsp/dbsearch/PrimarySearch_ki.jsp?energyterm=kJ/mole&tag=pol&polymerid=2626&target=DNA+Gyrase+Subunit+B&column=ki&startPg=0&Increment=50&submit=Search

> <Link to Ligand-Target Pair in BindingDB>
http://www.bindingdb.org/jsp/dbsearch/PrimarySearch_ki.jsp?energyterm=kJ/mole&tag=r21&monomerid=50388097&enzyme=DNA+Gyrase+Subunit+B&column=ki&startPg=0&Increment=50&submit=Search

> <Ligand HET ID in PDB>


> <PDB ID(s) for Ligand-Target Complex>


> <PubChem CID>
62705690

> <PubChem SID>
160867180

> <ChEBI ID of Ligand>


> <ChEMBL ID of Ligand>
CHEMBL2059375

> <DrugBank ID of Ligand>


> <IUPHAR_GRAC ID of Ligand>


> <KEGG ID of Ligand>


> <ZINC ID of Ligand>
ZINC84690409

> <Number of Protein Chains in Target (>1 implies a multichain complex)>
1

> <BindingDB Target Chain Sequence>
MVTALSDVNNTDNYGAGQIQVLEGLEAVRKRPGMYIGSTSERGLHHLVWEIVDNSIDEALAGYANQIEVVIEKDNWIKVTDNGRGIPVDIQEKMGRPAVEVILTVLHAGGKFGGGGYKVSGGLHGVGSSVVNALSQDLEVYVHRNETIYHQAYKKGVPQFDLKEVGTTDKTGTVIRFKADGEIFTETTVYNYETLQQRIRELAFLNKGIQITLRDERDEENVREDSYHYEGGIKSYVELLNENKEPIHDEPIYIHQSKDDIEVEIAIQYNSGYATNLLTYANNIHTYEGGTHEDGFKRALTRVLNSYGLSSKIMKEEKDRLSGEDTREGMTAIISIKHGDPQFEGQTKTKLGNSEVRQVVDKLFSEHFERFLYENPQVARTVVEKGIMAARARVAAKKAREVTRRKSALDVASLPGKLADCSSKSPEECEIFLVEGDSAGGSTKSGRDSRTQAILPLRGKILNVEKARLDRILNNNEIRQMITAFGTGIGGDFDLAKARYHKIVIMTDADVDGAHIRTLLLTFFYRFMRPLIEAGYVYIAQPPLYKLTQGKQKYYVYNDRELDKLKSELNPTPKWSIARYKGLGEMNADQLWETTMNPEHRALLQVKLEDAIEADQTFEMLMGDVVENRRQFIEDNAVYANLDF

> <PDB ID(s) of Target Chain>


> <UniProt (SwissProt) Recommended Name of Target Chain>
DNA gyrase subunit B

> <UniProt (SwissProt) Entry Name of Target Chain>
GYRB_STAAU

> <UniProt (SwissProt) Primary ID of Target Chain>
P0A0K8

> <UniProt (SwissProt) Secondary ID(s) of Target Chain>
P20832

> <UniProt (SwissProt) Alternative ID(s) of Target Chain>


> <UniProt (TrEMBL) Submitted Name of Target Chain>


> <UniProt (TrEMBL) Entry Name of Target Chain>


> <UniProt (TrEMBL) Primary ID of Target Chain>


> <UniProt (TrEMBL) Secondary ID(s) of Target Chain>


> <UniProt (TrEMBL) Alternative ID(s) of Target Chain>


$$$$

  SciTegic12201612272D

 24 27  0  0  0  0            999 V2000
    0.2917   -0.7475    0.0000 C   0  0
    0.2917    0.7475    0.0000 C   0  0
   -1.0028    1.5132    0.0000 C   0  0
   -2.3155    0.7475    0.0000 C   0  0
   -2.3155   -0.7475    0.0000 C   0  0
   -1.0028   -1.5132    0.0000 N   0  0
    2.5889    0.0182    0.0000 N   0  0
    1.7138   -1.2033    0.0000 N   0  0
    1.7138    1.2033    0.0000 C   0  0
   -3.3560   -1.3452    0.0000 O   0  0
    1.3751    3.8801    0.0000 S   0  0
    2.1749    2.6315    0.0000 C   0  0
    3.6243    2.9682    0.0000 N   0  0
    3.7308    4.4644    0.0000 C   0  0
    2.3406    5.0280    0.0000 C   0  0
    2.9755    7.5994    0.0000 C   0  0
    1.9793    6.4846    0.0000 C   0  0
    0.5081    6.7858    0.0000 C   0  0
    0.0384    8.2104    0.0000 C   0  0
    1.0373    9.3295    0.0000 C   0  0
    2.5059    9.0239    0.0000 N   0  0
   -0.9971   -3.0138    0.0000 C   0  0
   -2.2935   -3.7700    0.0000 C   0  0
   -2.2889   -4.9699    0.0000 C   0  0
  1  2  2  0
  2  3  1  0
  3  4  2  0
  4  5  1  0
  5  6  1  0
  1  6  1  0
  7  8  1  0
  7  9  2  0
  1  8  1  0
  2  9  1  0
  5 10  2  0
 11 12  1  0
 12 13  2  0
 13 14  1  0
 14 15  2  0
 11 15  1  0
 16 17  1  0
 17 18  2  0
 18 19  1  0
 19 20  2  0
 20 21  1  0
 16 21  2  0
 15 17  1  0
  9 12  1  0
 22 23  1  0
 23 24  1  0
  6 22  1  0
M  END
> <From> 
www.bindingDB.org

> <BindingDB Reactant_set_id>
50498685

> <Ligand InChI>
InChI=1S/C17H15N5OS/c1-2-8-22-14(23)6-5-12-15(20-21-16(12)22)17-19-10-13(24-17)11-4-3-7-18-9-11/h3-7,9-10H,2,8H2,1H3,(H,20,21)

> <Ligand InChI Key>
DEDPSKXMCCGEJT-UHFFFAOYSA-N

> <BindingDB MonomerID>
50173874

> <BindingDB Ligand Name>
CHEMBL3808699

> <Target Name Assigned by Curator or DataSource>
DNA gyrase

> <Target Source Organism According to Curator or DataSource>
Staphylococcus aureus

> <Ki (nM)>


> <IC50 (nM)>
 9.0

> <Kd (nM)>


> <EC50 (nM)>


> <kon (M-1-s-1)>


> <koff (s-1)>


> <pH>


> <Temp C>


> <Curation/DataSource>
ChEMBL

> <Article DOI>
10.1021/acsmedchemlett.5b00368

> <PMID>
27096044

> <PubChem AID>


> <Patent Number>


> <Authors>
Cross, JB; Zhang, J; Yang, Q; Mesleh, MF; Romero, JA; Wang, B; Bevan, D; Poutsiaka, KM; Epie, F; Moy, T; Daniel, A; Shotwell, J; Chamberlain, B; Carter, N; Andersen, O; Barker, J; Ryan, MD; Metcalf, CA; Silverman, J; Nguyen, K; Lippa, B; Dolle, RE

> <Institution>
Cubist Pharmaceuticals, Inc.

> <Link to Ligand in BindingDB>
http://www.bindingdb.org/bind/chemsearch/marvin/MolStructure.jsp?monomerid=50173874

> <Link to Ligand-Target Pair in BindingDB>
http://www.bindingdb.org/jsp/dbsearch/PrimarySearch_ki.jsp?energyterm=kJ/mole&tag=pol&polymerid=2626&target=DNA+gyrase&column=ki&startPg=0&Increment=50&submit=Search

> <Link to Ligand-Target Pair in BindingDB>
http://www.bindingdb.org/jsp/dbsearch/PrimarySearch_ki.jsp?energyterm=kJ/mole&tag=r21&monomerid=50173874&enzyme=DNA+gyrase&column=ki&startPg=0&Increment=50&submit=Search

> <Ligand HET ID in PDB>


> <PDB ID(s) for Ligand-Target Complex>


> <PubChem CID>
127045388

> <PubChem SID>
346548893

> <ChEBI ID of Ligand>


> <ChEMBL ID of Ligand>


> <DrugBank ID of Ligand>


> <IUPHAR_GRAC ID of Ligand>


> <KEGG ID of Ligand>


> <ZINC ID of Ligand>


> <Number of Protein Chains in Target (>1 implies a multichain complex)>
1

> <BindingDB Target Chain Sequence>
MVTALSDVNNTDNYGAGQIQVLEGLEAVRKRPGMYIGSTSERGLHHLVWEIVDNSIDEALAGYANQIEVVIEKDNWIKVTDNGRGIPVDIQEKMGRPAVEVILTVLHAGGKFGGGGYKVSGGLHGVGSSVVNALSQDLEVYVHRNETIYHQAYKKGVPQFDLKEVGTTDKTGTVIRFKADGEIFTETTVYNYETLQQRIRELAFLNKGIQITLRDERDEENVREDSYHYEGGIKSYVELLNENKEPIHDEPIYIHQSKDDIEVEIAIQYNSGYATNLLTYANNIHTYEGGTHEDGFKRALTRVLNSYGLSSKIMKEEKDRLSGEDTREGMTAIISIKHGDPQFEGQTKTKLGNSEVRQVVDKLFSEHFERFLYENPQVARTVVEKGIMAARARVAAKKAREVTRRKSALDVASLPGKLADCSSKSPEECEIFLVEGDSAGGSTKSGRDSRTQAILPLRGKILNVEKARLDRILNNNEIRQMITAFGTGIGGDFDLAKARYHKIVIMTDADVDGAHIRTLLLTFFYRFMRPLIEAGYVYIAQPPLYKLTQGKQKYYVYNDRELDKLKSELNPTPKWSIARYKGLGEMNADQLWETTMNPEHRALLQVKLEDAIEADQTFEMLMGDVVENRRQFIEDNAVYANLDF

> <PDB ID(s) of Target Chain>


> <UniProt (SwissProt) Recommended Name of Target Chain>
DNA gyrase subunit B

> <UniProt (SwissProt) Entry Name of Target Chain>
GYRB_STAAU

> <UniProt (SwissProt) Primary ID of Target Chain>
P0A0K8

> <UniProt (SwissProt) Secondary ID(s) of Target Chain>
P20832

> <UniProt (SwissProt) Alternative ID(s) of Target Chain>


> <UniProt (TrEMBL) Submitted Name of Target Chain>


> <UniProt (TrEMBL) Entry Name of Target Chain>


> <UniProt (TrEMBL) Primary ID of Target Chain>


> <UniProt (TrEMBL) Secondary ID(s) of Target Chain>


> <UniProt (TrEMBL) Alternative ID(s) of Target Chain>


$$$$

  SciTegic12201612272D

 30 33  0  0  0  0            999 V2000
    0.2917   -0.7475    0.0000 C   0  0
    0.2917    0.7475    0.0000 C   0  0
   -1.0028    1.5132    0.0000 C   0  0
   -2.3155    0.7475    0.0000 C   0  0
   -2.3155   -0.7475    0.0000 C   0  0
   -1.0028   -1.5132    0.0000 N   0  0
    2.5889    0.0182    0.0000 N   0  0
    1.7138   -1.2033    0.0000 N   0  0
    1.7138    1.2033    0.0000 C   0  0
   -3.3560   -1.3452    0.0000 O   0  0
   -0.9971   -3.0138    0.0000 C   0  0
   -2.2935   -3.7700    0.0000 C   0  0
   -2.2889   -4.9699    0.0000 C   0  0
    3.6243    2.9682    0.0000 S   0  0
    3.7308    4.4645    0.0000 C   0  0
    2.3406    5.0280    0.0000 N   0  0
    1.3751    3.8801    0.0000 C   0  0
    2.1749    2.6315    0.0000 C   0  0
    6.3724    4.6552    0.0000 C   0  0
    5.0044    5.2582    0.0000 C   0  0
    4.8363    6.7505    0.0000 C   0  0
    6.0460    7.6374    0.0000 C   0  0
    7.4189    7.0332    0.0000 C   0  0
    7.5821    5.5421    0.0000 N   0  0
    8.6311    7.9182    0.0000 C   0  0
   10.0039    7.3117    0.0000 N   0  0
   11.2161    8.1966    0.0000 C   0  0
   12.3138    7.7117    0.0000 C   0  0
   10.1616    5.8192    0.0000 C   0  0
    9.1916    5.1127    0.0000 C   0  0
  1  2  2  0
  2  3  1  0
  3  4  2  0
  4  5  1  0
  5  6  1  0
  1  6  1  0
  7  8  1  0
  7  9  2  0
  1  8  1  0
  2  9  1  0
  5 10  2  0
 11 12  1  0
 12 13  1  0
  6 11  1  0
 14 15  1  0
 15 16  2  0
 16 17  1  0
 17 18  2  0
 14 18  1  0
 19 20  1  0
 20 21  2  0
 21 22  1  0
 22 23  2  0
 23 24  1  0
 19 24  2  0
 27 28  1  0
 26 27  1  0
 29 30  1  0
 26 29  1  0
 25 26  1  0
 23 25  1  0
 15 20  1  0
  9 18  1  0
M  END
> <From> 
www.bindingDB.org

> <BindingDB Reactant_set_id>
50498679

> <Ligand InChI>
InChI=1S/C22H26N6OS/c1-4-11-28-19(29)10-9-17-20(25-26-21(17)28)18-13-24-22(30-18)15-7-8-16(23-12-15)14-27(5-2)6-3/h7-10,12-13H,4-6,11,14H2,1-3H3,(H,25,26)

> <Ligand InChI Key>
RYWREJZREPBNEF-UHFFFAOYSA-N

> <BindingDB MonomerID>
50173723

> <BindingDB Ligand Name>
CHEMBL3809816

> <Target Name Assigned by Curator or DataSource>
DNA gyrase

> <Target Source Organism According to Curator or DataSource>
Staphylococcus aureus

> <Ki (nM)>


> <IC50 (nM)>
 9.0

> <Kd (nM)>


> <EC50 (nM)>


> <kon (M-1-s-1)>


> <koff (s-1)>


> <pH>


> <Temp C>


> <Curation/DataSource>
ChEMBL

> <Article DOI>
10.1021/acsmedchemlett.5b00368

> <PMID>
27096044

> <PubChem AID>


> <Patent Number>


> <Authors>
Cross, JB; Zhang, J; Yang, Q; Mesleh, MF; Romero, JA; Wang, B; Bevan, D; Poutsiaka, KM; Epie, F; Moy, T; Daniel, A; Shotwell, J; Chamberlain, B; Carter, N; Andersen, O; Barker, J; Ryan, MD; Metcalf, CA; Silverman, J; Nguyen, K; Lippa, B; Dolle, RE

> <Institution>
Cubist Pharmaceuticals, Inc.

> <Link to Ligand in BindingDB>
http://www.bindingdb.org/bind/chemsearch/marvin/MolStructure.jsp?monomerid=50173723

> <Link to Ligand-Target Pair in BindingDB>
http://www.bindingdb.org/jsp/dbsearch/PrimarySearch_ki.jsp?energyterm=kJ/mole&tag=pol&polymerid=2626&target=DNA+gyrase&column=ki&startPg=0&Increment=50&submit=Search

> <Link to Ligand-Target Pair in BindingDB>
http://www.bindingdb.org/jsp/dbsearch/PrimarySearch_ki.jsp?energyterm=kJ/mole&tag=r21&monomerid=50173723&enzyme=DNA+gyrase&column=ki&startPg=0&Increment=50&submit=Search

> <Ligand HET ID in PDB>


> <PDB ID(s) for Ligand-Target Complex>


> <PubChem CID>
127045233

> <PubChem SID>
104059587

> <ChEBI ID of Ligand>


> <ChEMBL ID of Ligand>


> <DrugBank ID of Ligand>


> <IUPHAR_GRAC ID of Ligand>


> <KEGG ID of Ligand>


> <ZINC ID of Ligand>


> <Number of Protein Chains in Target (>1 implies a multichain complex)>
1

> <BindingDB Target Chain Sequence>
MVTALSDVNNTDNYGAGQIQVLEGLEAVRKRPGMYIGSTSERGLHHLVWEIVDNSIDEALAGYANQIEVVIEKDNWIKVTDNGRGIPVDIQEKMGRPAVEVILTVLHAGGKFGGGGYKVSGGLHGVGSSVVNALSQDLEVYVHRNETIYHQAYKKGVPQFDLKEVGTTDKTGTVIRFKADGEIFTETTVYNYETLQQRIRELAFLNKGIQITLRDERDEENVREDSYHYEGGIKSYVELLNENKEPIHDEPIYIHQSKDDIEVEIAIQYNSGYATNLLTYANNIHTYEGGTHEDGFKRALTRVLNSYGLSSKIMKEEKDRLSGEDTREGMTAIISIKHGDPQFEGQTKTKLGNSEVRQVVDKLFSEHFERFLYENPQVARTVVEKGIMAARARVAAKKAREVTRRKSALDVASLPGKLADCSSKSPEECEIFLVEGDSAGGSTKSGRDSRTQAILPLRGKILNVEKARLDRILNNNEIRQMITAFGTGIGGDFDLAKARYHKIVIMTDADVDGAHIRTLLLTFFYRFMRPLIEAGYVYIAQPPLYKLTQGKQKYYVYNDRELDKLKSELNPTPKWSIARYKGLGEMNADQLWETTMNPEHRALLQVKLEDAIEADQTFEMLMGDVVENRRQFIEDNAVYANLDF

> <PDB ID(s) of Target Chain>


> <UniProt (SwissProt) Recommended Name of Target Chain>
DNA gyrase subunit B

> <UniProt (SwissProt) Entry Name of Target Chain>
GYRB_STAAU

> <UniProt (SwissProt) Primary ID of Target Chain>
P0A0K8

> <UniProt (SwissProt) Secondary ID(s) of Target Chain>
P20832

> <UniProt (SwissProt) Alternative ID(s) of Target Chain>


> <UniProt (TrEMBL) Submitted Name of Target Chain>


> <UniProt (TrEMBL) Entry Name of Target Chain>


> <UniProt (TrEMBL) Primary ID of Target Chain>


> <UniProt (TrEMBL) Secondary ID(s) of Target Chain>


> <UniProt (TrEMBL) Alternative ID(s) of Target Chain>


$$$$

  SciTegic09291413392D

 29 32  0  0  0  0            999 V2000
   13.5909  -27.9331    0.0000 C   0  0
   15.7151  -26.7031    0.0000 C   0  0
   15.7139  -27.5227    0.0000 C   0  0
   16.4220  -27.9316    0.0000 N   0  0
   16.4202  -26.2943    0.0000 C   0  0
   17.1288  -26.6995    0.0000 C   0  0
   17.1336  -27.5227    0.0000 C   0  0
   17.9180  -27.7725    0.0000 S   0  0
   18.3980  -27.1037    0.0000 C   0  0
   17.9102  -26.4406    0.0000 N   0  0
   15.0093  -26.2949    0.0000 C   0  0
   15.0105  -25.4766    0.0000 C   0  0
   14.3035  -25.0682    0.0000 N   0  0
   13.5949  -25.4770    0.0000 C   0  0
   13.5977  -26.2985    0.0000 C   0  0
   19.2152  -27.0989    0.0000 N   0  0
   19.6196  -26.3887    0.0000 C   0  0
   20.4368  -26.3839    0.0000 N   0  0
   19.2068  -25.6835    0.0000 O   0  0
   20.8412  -25.6738    0.0000 C   0  0
   21.6584  -25.6690    0.0000 C   0  0
   14.2992  -26.7044    0.0000 C   0  0
   12.8866  -25.0696    0.0000 F   0  0
   15.0059  -27.9307    0.0000 O   0  0
   14.2985  -27.5215    0.0000 C   0  0
   12.8421  -27.6026    0.0000 C   0  0
   12.2963  -28.2127    0.0000 C   0  0
   12.7079  -28.9203    0.0000 O   0  0
   13.5080  -28.7474    0.0000 C   0  0
  2  3  2  0
  3  4  1  0
  4  7  2  0
  6  5  2  0
  5  2  1  0
  6  7  1  0
  7  8  1  0
  8  9  1  0
  9 10  2  0
 10  6  1  0
 11 12  2  0
 12 13  1  0
 13 14  2  0
 14 15  1  0
 15 22  2  0
 22 11  1  0
  2 11  1  0
  9 16  1  0
 16 17  1  0
 17 18  1  0
 17 19  2  0
 18 20  1  0
 20 21  1  0
 14 23  1  0
  3 24  1  0
 24 25  1  0
 25  1  1  0
  1 26  1  0
 26 27  1  0
 27 28  1  0
 28 29  1  0
 29  1  1  0
M  END
> <From> 
www.bindingDB.org

> <BindingDB Reactant_set_id>
50089921

> <Ligand InChI>
InChI=1S/C19H20FN5O3S/c1-2-21-18(26)25-19-23-14-7-13(12-3-4-15(20)22-8-12)16(24-17(14)29-19)28-10-11-5-6-27-9-11/h3-4,7-8,11H,2,5-6,9-10H2,1H3,(H2,21,23,25,26)

> <Ligand InChI Key>
UXHVCGLLMWOEDM-UHFFFAOYSA-N

> <BindingDB MonomerID>
50010360

> <BindingDB Ligand Name>
CHEMBL3263603

> <Target Name Assigned by Curator or DataSource>
DNA gyrase subunit B

> <Target Source Organism According to Curator or DataSource>


> <Ki (nM)>


> <IC50 (nM)>
 9.0

> <Kd (nM)>


> <EC50 (nM)>


> <kon (M-1-s-1)>


> <koff (s-1)>


> <pH>


> <Temp C>


> <Curation/DataSource>
ChEMBL

> <Article DOI>
10.1021/jm401268f

> <PMID>
24088190

> <PubChem AID>


> <Patent Number>


> <Authors>
Ahuja, V; Ahuja, V; Basavarajappa, H; Basavarajappa, H; P, SH; P, SH; Boriack-Sjodin, PA; Boriack-Sjodin, PA; McKinney, D; McKinney, D; Ganguly, S; Ganguly, S; Kranthi, U; Kranthi, U; Gaonkar, S; Gaonkar, S; Jena, Lk; Jena, Lk; Ghorpade, SR; Ghorpade, SR; Ghosh, A; Ghosh, A; Barde, S; Barde, S; Kale, MG; Kale, MG; Koushik, K; Koushik, K; Kumar, CN; Kumar, CN; Manjunatha, MR; Manjunatha, MR; Ogg, D; Ogg, D; Panduga, V; Panduga, V; Ramya, VK; Ramya, VK; Reddy, J; Reddy, J; Kumar, KN; Kumar, KN; Giridhar, J; Giridhar, J; Rudrapatna, S; Rudrapatna, S; Sharma, S; Sharma, S; Tucker, JA; Tucker, JA; Vachaspati, P; Vachaspati, P; Waterson, D; Waterson, D; de Sousa, SM; de Sousa, SM

> <Institution>
AstraZeneca India Pvt. Ltd.

> <Link to Ligand in BindingDB>
http://www.bindingdb.org/bind/chemsearch/marvin/MolStructure.jsp?monomerid=50010360

> <Link to Ligand-Target Pair in BindingDB>
http://www.bindingdb.org/jsp/dbsearch/PrimarySearch_ki.jsp?energyterm=kJ/mole&tag=pol&polymerid=50006452&target=DNA+gyrase+subunit+B&column=ki&startPg=0&Increment=50&submit=Search

> <Link to Ligand-Target Pair in BindingDB>
http://www.bindingdb.org/jsp/dbsearch/PrimarySearch_ki.jsp?energyterm=kJ/mole&tag=r21&monomerid=50010360&enzyme=DNA+gyrase+subunit+B&column=ki&startPg=0&Increment=50&submit=Search

> <Ligand HET ID in PDB>


> <PDB ID(s) for Ligand-Target Complex>


> <PubChem CID>
59352798

> <PubChem SID>
103923174

> <ChEBI ID of Ligand>


> <ChEMBL ID of Ligand>
CHEMBL3263603

> <DrugBank ID of Ligand>


> <IUPHAR_GRAC ID of Ligand>


> <KEGG ID of Ligand>


> <ZINC ID of Ligand>
ZINC13446898

> <Number of Protein Chains in Target (>1 implies a multichain complex)>
1

> <BindingDB Target Chain Sequence>
MAAQKNNAPKEYGADSITILEGLEAVRKRPGMYIGSTGERGLHHLIWEVVDNAVDEAMAGFATRVDVKIHADGSVEVRDDGRGIPVEMHATGMPTIDVVMTQLHAGGKFDGETYAVSGGLHGVGVSVVNALSTRLEATVLRDGYEWFQYYDRSVPGKLKQGGETKETGTTIRFWADPEIFETTDYNFETVARRLQEMAFLNKGLTIELTDERVTAEEVVDDVVKDTAEAPKTADEKAAEATGPSKVKHRVFHYPGGLVDYVKHINRTKTPIQQSIIDFDGKGPGHEVEIAMQWNAGYSESVHTFANTINTHEGGTHEEGFRAALTSVVNRYAKDKKLLKDKDPNLTGDDIREGLAAVISVKVAEPQFEGQTKTKLGNTEVKSFVQKICNEQLQHWFEANPAEAKTVVNKAVSSAQARIAARKARELVRRKSATDIGGLPGKLADCRSTDPSKSELYVVEGDSAGGSAKSGRDSMFQAILPLRGKIINVEKARIDRVLKNTEVQSIITALGTGIHDEFDISKLRYHKIVLMADADVDGQHISTLLLTLLFRFMKPLVENGHIFLAQPPLYKLKWQRSEPEFAYSDRERDGLLEAGRAAGKKINVDDGIQRYKGLGEMDAKELWETTMDPSVRVLRQVTLDDAAAADELFSILMGEDVEARRSFITRNAKDVRFLDV

> <PDB ID(s) of Target Chain>
4BAE

> <UniProt (SwissProt) Recommended Name of Target Chain>
DNA gyrase subunit B

> <UniProt (SwissProt) Entry Name of Target Chain>
GYRB_MYCSM

> <UniProt (SwissProt) Primary ID of Target Chain>
P0C559

> <UniProt (SwissProt) Secondary ID(s) of Target Chain>
P48355,Q59555

> <UniProt (SwissProt) Alternative ID(s) of Target Chain>


> <UniProt (TrEMBL) Submitted Name of Target Chain>


> <UniProt (TrEMBL) Entry Name of Target Chain>


> <UniProt (TrEMBL) Primary ID of Target Chain>


> <UniProt (TrEMBL) Secondary ID(s) of Target Chain>


> <UniProt (TrEMBL) Alternative ID(s) of Target Chain>


$$$$

  SciTegic09291413392D

 28 31  0  0  0  0            999 V2000
   12.2440  -11.1371    0.0000 C   0  0
   12.2429  -11.9645    0.0000 C   0  0
   12.9577  -12.3773    0.0000 N   0  0
   12.9559  -10.7244    0.0000 C   0  0
   13.6712  -11.1335    0.0000 C   0  0
   13.6762  -11.9645    0.0000 C   0  0
   14.4679  -12.2167    0.0000 S   0  0
   14.9525  -11.5415    0.0000 C   0  0
   14.4601  -10.8722    0.0000 N   0  0
   11.5316  -10.7250    0.0000 C   0  0
   11.5327   -9.8989    0.0000 C   0  0
   10.8190   -9.4866    0.0000 C   0  0
   10.1037   -9.8994    0.0000 C   0  0
   10.1066  -10.7286    0.0000 N   0  0
   15.7775  -11.5367    0.0000 N   0  0
   16.1857  -10.8198    0.0000 C   0  0
   17.0107  -10.8149    0.0000 N   0  0
   15.7691  -10.1078    0.0000 O   0  0
   17.4190  -10.0980    0.0000 C   0  0
   18.2440  -10.0931    0.0000 C   0  0
   11.5281  -12.3764    0.0000 O   0  0
   10.8147  -11.1384    0.0000 C   0  0
   11.5274  -13.2014    0.0000 C   0  0
   10.8129  -13.6139    0.0000 C   0  0
   10.8129  -14.4389    0.0000 C   0  0
   11.5274  -14.8514    0.0000 O   0  0
   12.2418  -14.4389    0.0000 C   0  0
   12.2418  -13.6139    0.0000 C   0  0
  1  2  2  0
  2  3  1  0
  3  6  2  0
  5  4  2  0
  4  1  1  0
  5  6  1  0
  6  7  1  0
  7  8  1  0
  8  9  2  0
  9  5  1  0
 10 11  2  0
 11 12  1  0
 12 13  2  0
 13 14  1  0
 14 22  2  0
 22 10  1  0
  1 10  1  0
  8 15  1  0
 15 16  1  0
 16 17  1  0
 16 18  2  0
 17 19  1  0
 19 20  1  0
  2 21  1  0
 21 23  1  0
 23 24  1  0
 23 28  1  0
 24 25  1  0
 25 26  1  0
 26 27  1  0
 27 28  1  0
M  END
> <From> 
www.bindingDB.org

> <BindingDB Reactant_set_id>
50089903

> <Ligand InChI>
InChI=1S/C19H21N5O3S/c1-2-21-18(25)24-19-22-15-10-14(12-4-3-7-20-11-12)16(23-17(15)28-19)27-13-5-8-26-9-6-13/h3-4,7,10-11,13H,2,5-6,8-9H2,1H3,(H2,21,22,24,25)

> <Ligand InChI Key>
NXMARHJZTJRAHQ-UHFFFAOYSA-N

> <BindingDB MonomerID>
50010348

> <BindingDB Ligand Name>
CHEMBL3263592

> <Target Name Assigned by Curator or DataSource>
DNA gyrase subunit B

> <Target Source Organism According to Curator or DataSource>


> <Ki (nM)>


> <IC50 (nM)>
 9.0

> <Kd (nM)>


> <EC50 (nM)>


> <kon (M-1-s-1)>


> <koff (s-1)>


> <pH>


> <Temp C>


> <Curation/DataSource>
ChEMBL

> <Article DOI>
10.1021/jm401268f

> <PMID>
24088190

> <PubChem AID>


> <Patent Number>


> <Authors>
Ahuja, V; Ahuja, V; Basavarajappa, H; Basavarajappa, H; P, SH; P, SH; Boriack-Sjodin, PA; Boriack-Sjodin, PA; McKinney, D; McKinney, D; Ganguly, S; Ganguly, S; Kranthi, U; Kranthi, U; Gaonkar, S; Gaonkar, S; Jena, Lk; Jena, Lk; Ghorpade, SR; Ghorpade, SR; Ghosh, A; Ghosh, A; Barde, S; Barde, S; Kale, MG; Kale, MG; Koushik, K; Koushik, K; Kumar, CN; Kumar, CN; Manjunatha, MR; Manjunatha, MR; Ogg, D; Ogg, D; Panduga, V; Panduga, V; Ramya, VK; Ramya, VK; Reddy, J; Reddy, J; Kumar, KN; Kumar, KN; Giridhar, J; Giridhar, J; Rudrapatna, S; Rudrapatna, S; Sharma, S; Sharma, S; Tucker, JA; Tucker, JA; Vachaspati, P; Vachaspati, P; Waterson, D; Waterson, D; de Sousa, SM; de Sousa, SM

> <Institution>
AstraZeneca India Pvt. Ltd.

> <Link to Ligand in BindingDB>
http://www.bindingdb.org/bind/chemsearch/marvin/MolStructure.jsp?monomerid=50010348

> <Link to Ligand-Target Pair in BindingDB>
http://www.bindingdb.org/jsp/dbsearch/PrimarySearch_ki.jsp?energyterm=kJ/mole&tag=pol&polymerid=50006452&target=DNA+gyrase+subunit+B&column=ki&startPg=0&Increment=50&submit=Search

> <Link to Ligand-Target Pair in BindingDB>
http://www.bindingdb.org/jsp/dbsearch/PrimarySearch_ki.jsp?energyterm=kJ/mole&tag=r21&monomerid=50010348&enzyme=DNA+gyrase+subunit+B&column=ki&startPg=0&Increment=50&submit=Search

> <Ligand HET ID in PDB>


> <PDB ID(s) for Ligand-Target Complex>


> <PubChem CID>
72713295

> <PubChem SID>
103923162

> <ChEBI ID of Ligand>


> <ChEMBL ID of Ligand>
CHEMBL3263592

> <DrugBank ID of Ligand>


> <IUPHAR_GRAC ID of Ligand>


> <KEGG ID of Ligand>


> <ZINC ID of Ligand>
ZINC26981242

> <Number of Protein Chains in Target (>1 implies a multichain complex)>
1

> <BindingDB Target Chain Sequence>
MAAQKNNAPKEYGADSITILEGLEAVRKRPGMYIGSTGERGLHHLIWEVVDNAVDEAMAGFATRVDVKIHADGSVEVRDDGRGIPVEMHATGMPTIDVVMTQLHAGGKFDGETYAVSGGLHGVGVSVVNALSTRLEATVLRDGYEWFQYYDRSVPGKLKQGGETKETGTTIRFWADPEIFETTDYNFETVARRLQEMAFLNKGLTIELTDERVTAEEVVDDVVKDTAEAPKTADEKAAEATGPSKVKHRVFHYPGGLVDYVKHINRTKTPIQQSIIDFDGKGPGHEVEIAMQWNAGYSESVHTFANTINTHEGGTHEEGFRAALTSVVNRYAKDKKLLKDKDPNLTGDDIREGLAAVISVKVAEPQFEGQTKTKLGNTEVKSFVQKICNEQLQHWFEANPAEAKTVVNKAVSSAQARIAARKARELVRRKSATDIGGLPGKLADCRSTDPSKSELYVVEGDSAGGSAKSGRDSMFQAILPLRGKIINVEKARIDRVLKNTEVQSIITALGTGIHDEFDISKLRYHKIVLMADADVDGQHISTLLLTLLFRFMKPLVENGHIFLAQPPLYKLKWQRSEPEFAYSDRERDGLLEAGRAAGKKINVDDGIQRYKGLGEMDAKELWETTMDPSVRVLRQVTLDDAAAADELFSILMGEDVEARRSFITRNAKDVRFLDV

> <PDB ID(s) of Target Chain>
4BAE

> <UniProt (SwissProt) Recommended Name of Target Chain>
DNA gyrase subunit B

> <UniProt (SwissProt) Entry Name of Target Chain>
GYRB_MYCSM

> <UniProt (SwissProt) Primary ID of Target Chain>
P0C559

> <UniProt (SwissProt) Secondary ID(s) of Target Chain>
P48355,Q59555

> <UniProt (SwissProt) Alternative ID(s) of Target Chain>


> <UniProt (TrEMBL) Submitted Name of Target Chain>


> <UniProt (TrEMBL) Entry Name of Target Chain>


> <UniProt (TrEMBL) Primary ID of Target Chain>


> <UniProt (TrEMBL) Secondary ID(s) of Target Chain>


> <UniProt (TrEMBL) Alternative ID(s) of Target Chain>


$$$$

  Mrv0541 03271611212D          

 33 36  0  0  0  0            999 V2000
   21.8000  -15.1325    0.0000 C   0  0  2  0  0  0  0  0  0  0  0  0
   26.4925  -13.6422    0.0000 O   0  0  0  0  0  0  0  0  0  0  0  0
   25.0798  -13.8560    0.0000 C   0  0  0  0  0  0  0  0  0  0  0  0
   20.5952  -15.9007    0.0000 C   0  0  0  0  0  0  0  0  0  0  0  0
   21.4194  -15.8644    0.0000 O   0  0  0  0  0  0  0  0  0  0  0  0
   17.9836  -13.4622    0.0000 C   0  0  0  0  0  0  0  0  0  0  0  0
   18.7558  -13.1720    0.0000 C   0  0  0  0  0  0  0  0  0  0  0  0
   22.5596  -13.6727    0.0000 C   0  0  0  0  0  0  0  0  0  0  0  0
   18.8164  -14.5053    0.0000 N   0  0  0  0  0  0  0  0  0  0  0  0
   24.2844  -13.6370    0.0000 S   0  0  0  0  0  0  0  0  0  0  0  0
   21.3599  -14.4398    0.0000 C   0  0  1  0  0  0  0  0  0  0  0  0
   20.0912  -13.7823    0.0000 C   0  0  0  0  0  0  0  0  0  0  0  0
   22.6242  -15.0952    0.0000 C   0  0  0  0  0  0  0  0  0  0  0  0
   25.8435  -15.9583    0.0000 C   0  0  0  0  0  0  0  0  0  0  0  0
   17.2949  -13.0080    0.0000 Cl  0  0  0  0  0  0  0  0  0  0  0  0
   26.5781  -14.8438    0.0000 N   0  0  0  0  0  0  0  0  0  0  0  0
   25.1171  -14.6802    0.0000 C   0  0  0  0  0  0  0  0  0  0  0  0
   23.0081  -14.3650    0.0000 N   0  0  0  0  0  0  0  0  0  0  0  0
   18.9770  -12.3772    0.0000 Cl  0  0  0  0  0  0  0  0  0  0  0  0
   21.7354  -13.7100    0.0000 C   0  0  0  0  0  0  0  0  0  0  0  0
   25.8059  -15.1342    0.0000 C   0  0  0  0  0  0  0  0  0  0  0  0
   27.0929  -15.4884    0.0000 C   0  0  0  0  0  0  0  0  0  0  0  0
   25.6010  -12.5256    0.0000 O   0  0  0  0  0  0  0  0  0  0  0  0
   25.7244  -13.3412    0.0000 C   0  0  0  0  0  0  0  0  0  0  0  0
   18.0210  -14.2864    0.0000 C   0  0  0  0  0  0  0  0  0  0  0  0
   19.2672  -13.8197    0.0000 C   0  0  0  0  0  0  0  0  0  0  0  0
   26.6389  -16.1772    0.0000 S   0  0  0  0  0  0  0  0  0  0  0  0
   20.5357  -14.4773    0.0000 N   0  0  0  0  0  0  0  0  0  0  0  0
   23.8322  -14.3275    0.0000 C   0  0  0  0  0  0  0  0  0  0  0  0
   24.3449  -14.9704    0.0000 N   0  0  0  0  0  0  0  0  0  0  0  0
   20.4709  -13.0498    0.0000 O   0  0  0  0  0  0  0  0  0  0  0  0
   17.3763  -14.8011    0.0000 C   0  0  0  0  0  0  0  0  0  0  0  0
   27.9170  -15.4508    0.0000 N   0  0  0  0  0  0  0  0  0  0  0  0
  7  6  4  0  0  0  0
 12 26  1  0  0  0  0
  7 19  1  0  0  0  0
  6 15  1  0  0  0  0
 25  9  4  0  0  0  0
  1 11  1  0  0  0  0
 18 29  1  0  0  0  0
 22 16  4  0  0  0  0
 13 18  1  0  0  0  0
 17  3  4  0  0  0  0
 10 29  4  0  0  0  0
  8 20  1  0  0  0  0
 24  2  1  0  0  0  0
  1 13  1  0  0  0  0
 30 17  4  0  0  0  0
 25 32  1  0  0  0  0
  8 18  1  0  0  0  0
 21 16  4  0  0  0  0
 12 31  2  0  0  0  0
 28 12  1  0  0  0  0
 11 20  1  0  0  0  0
 21 14  4  0  0  0  0
 24 23  2  0  0  0  0
  3 24  1  0  0  0  0
 17 21  1  0  0  0  0
  5  4  1  0  0  0  0
  9 26  4  0  0  0  0
 14 27  4  0  0  0  0
 26  7  4  0  0  0  0
  6 25  4  0  0  0  0
 29 30  4  0  0  0  0
  1  5  1  6  0  0  0
 11 28  1  6  0  0  0
  3 10  4  0  0  0  0
 27 22  4  0  0  0  0
 22 33  1  0  0  0  0
M  STY  1   1 DAT
M  SAL   1  1   9
M  SDT   1 MRV_IMPLICIT_H                                        
M  SDD   1     0.0000    0.0000    DR    ALL  0       0  
M  SED   1 IMPL_H1
M  END
> <From> 
www.bindingDB.org

> <BindingDB Reactant_set_id>
50271413

> <Ligand InChI>
InChI=1S/C19H20Cl2N6O4S2/c1-7-11(20)12(21)14(23-7)16(28)24-8-3-4-27(5-10(8)31-2)19-26-13(15(33-19)17(29)30)9-6-32-18(22)25-9/h6,8,10,23H,3-5H2,1-2H3,(H2,22,25)(H,24,28)(H,29,30)/t8-,10+/m1/s1

> <Ligand InChI Key>
YMDXCIDXUGLKPA-SCZZXKLOSA-N

> <BindingDB MonomerID>
50047348

> <BindingDB Ligand Name>
CHEMBL3314591

> <Target Name Assigned by Curator or DataSource>
DNA Gyrase Subunit B

> <Target Source Organism According to Curator or DataSource>
Staphylococcus aureus

> <Ki (nM)>


> <IC50 (nM)>
<9.8

> <Kd (nM)>


> <EC50 (nM)>


> <kon (M-1-s-1)>


> <koff (s-1)>


> <pH>


> <Temp C>


> <Curation/DataSource>
ChEMBL

> <Article DOI>
10.1021/jm500462x

> <PMID>
24959892

> <PubChem AID>


> <Patent Number>


> <Authors>
Basarab, GS; Hill, PJ; Garner, CE; Hull, K; Green, O; Sherer, BA; Dangel, PB; Manchester, JI; Bist, S; Hauck, S; Zhou, F; Uria-Nickelsen, M; Illingworth, R; Alm, R; Rooney, M; Eakin, AE

> <Institution>
AstraZeneca

> <Link to Ligand in BindingDB>
http://www.bindingdb.org/bind/chemsearch/marvin/MolStructure.jsp?monomerid=50047348

> <Link to Ligand-Target Pair in BindingDB>
http://www.bindingdb.org/jsp/dbsearch/PrimarySearch_ki.jsp?energyterm=kJ/mole&tag=pol&polymerid=2626&target=DNA+Gyrase+Subunit+B&column=ki&startPg=0&Increment=50&submit=Search

> <Link to Ligand-Target Pair in BindingDB>
http://www.bindingdb.org/jsp/dbsearch/PrimarySearch_ki.jsp?energyterm=kJ/mole&tag=r21&monomerid=50047348&enzyme=DNA+Gyrase+Subunit+B&column=ki&startPg=0&Increment=50&submit=Search

> <Ligand HET ID in PDB>


> <PDB ID(s) for Ligand-Target Complex>


> <PubChem CID>
25223619

> <PubChem SID>
313068776

> <ChEBI ID of Ligand>


> <ChEMBL ID of Ligand>


> <DrugBank ID of Ligand>


> <IUPHAR_GRAC ID of Ligand>


> <KEGG ID of Ligand>


> <ZINC ID of Ligand>


> <Number of Protein Chains in Target (>1 implies a multichain complex)>
1

> <BindingDB Target Chain Sequence>
MVTALSDVNNTDNYGAGQIQVLEGLEAVRKRPGMYIGSTSERGLHHLVWEIVDNSIDEALAGYANQIEVVIEKDNWIKVTDNGRGIPVDIQEKMGRPAVEVILTVLHAGGKFGGGGYKVSGGLHGVGSSVVNALSQDLEVYVHRNETIYHQAYKKGVPQFDLKEVGTTDKTGTVIRFKADGEIFTETTVYNYETLQQRIRELAFLNKGIQITLRDERDEENVREDSYHYEGGIKSYVELLNENKEPIHDEPIYIHQSKDDIEVEIAIQYNSGYATNLLTYANNIHTYEGGTHEDGFKRALTRVLNSYGLSSKIMKEEKDRLSGEDTREGMTAIISIKHGDPQFEGQTKTKLGNSEVRQVVDKLFSEHFERFLYENPQVARTVVEKGIMAARARVAAKKAREVTRRKSALDVASLPGKLADCSSKSPEECEIFLVEGDSAGGSTKSGRDSRTQAILPLRGKILNVEKARLDRILNNNEIRQMITAFGTGIGGDFDLAKARYHKIVIMTDADVDGAHIRTLLLTFFYRFMRPLIEAGYVYIAQPPLYKLTQGKQKYYVYNDRELDKLKSELNPTPKWSIARYKGLGEMNADQLWETTMNPEHRALLQVKLEDAIEADQTFEMLMGDVVENRRQFIEDNAVYANLDF

> <PDB ID(s) of Target Chain>


> <UniProt (SwissProt) Recommended Name of Target Chain>
DNA gyrase subunit B

> <UniProt (SwissProt) Entry Name of Target Chain>
GYRB_STAAU

> <UniProt (SwissProt) Primary ID of Target Chain>
P0A0K8

> <UniProt (SwissProt) Secondary ID(s) of Target Chain>
P20832

> <UniProt (SwissProt) Alternative ID(s) of Target Chain>


> <UniProt (TrEMBL) Submitted Name of Target Chain>


> <UniProt (TrEMBL) Entry Name of Target Chain>


> <UniProt (TrEMBL) Primary ID of Target Chain>


> <UniProt (TrEMBL) Secondary ID(s) of Target Chain>


> <UniProt (TrEMBL) Alternative ID(s) of Target Chain>


$$$$

  Mrv0541 03271611212D          

 32 35  0  0  0  0            999 V2000
   21.8000  -15.1325    0.0000 C   0  0  2  0  0  0  0  0  0  0  0  0
   26.4925  -13.6422    0.0000 O   0  0  0  0  0  0  0  0  0  0  0  0
   25.0798  -13.8560    0.0000 C   0  0  0  0  0  0  0  0  0  0  0  0
   20.5952  -15.9007    0.0000 C   0  0  0  0  0  0  0  0  0  0  0  0
   21.4194  -15.8644    0.0000 O   0  0  0  0  0  0  0  0  0  0  0  0
   17.9836  -13.4622    0.0000 C   0  0  0  0  0  0  0  0  0  0  0  0
   18.7558  -13.1720    0.0000 C   0  0  0  0  0  0  0  0  0  0  0  0
   22.5596  -13.6727    0.0000 C   0  0  0  0  0  0  0  0  0  0  0  0
   18.8164  -14.5053    0.0000 N   0  0  0  0  0  0  0  0  0  0  0  0
   24.2844  -13.6370    0.0000 S   0  0  0  0  0  0  0  0  0  0  0  0
   21.3599  -14.4398    0.0000 C   0  0  1  0  0  0  0  0  0  0  0  0
   20.0912  -13.7823    0.0000 C   0  0  0  0  0  0  0  0  0  0  0  0
   22.6242  -15.0952    0.0000 C   0  0  0  0  0  0  0  0  0  0  0  0
   25.8435  -15.9583    0.0000 S   0  0  0  0  0  0  0  0  0  0  0  0
   17.2949  -13.0080    0.0000 Cl  0  0  0  0  0  0  0  0  0  0  0  0
   26.5781  -14.8438    0.0000 N   0  0  0  0  0  0  0  0  0  0  0  0
   25.1171  -14.6802    0.0000 C   0  0  0  0  0  0  0  0  0  0  0  0
   23.0081  -14.3650    0.0000 N   0  0  0  0  0  0  0  0  0  0  0  0
   18.9770  -12.3772    0.0000 Cl  0  0  0  0  0  0  0  0  0  0  0  0
   21.7354  -13.7100    0.0000 C   0  0  0  0  0  0  0  0  0  0  0  0
   25.8059  -15.1342    0.0000 C   0  0  0  0  0  0  0  0  0  0  0  0
   27.0929  -15.4884    0.0000 C   0  0  0  0  0  0  0  0  0  0  0  0
   25.6010  -12.5256    0.0000 O   0  0  0  0  0  0  0  0  0  0  0  0
   25.7244  -13.3412    0.0000 C   0  0  0  0  0  0  0  0  0  0  0  0
   18.0210  -14.2864    0.0000 C   0  0  0  0  0  0  0  0  0  0  0  0
   19.2672  -13.8197    0.0000 C   0  0  0  0  0  0  0  0  0  0  0  0
   26.6389  -16.1772    0.0000 C   0  0  0  0  0  0  0  0  0  0  0  0
   20.5357  -14.4773    0.0000 N   0  0  0  0  0  0  0  0  0  0  0  0
   23.8322  -14.3275    0.0000 C   0  0  0  0  0  0  0  0  0  0  0  0
   24.3449  -14.9704    0.0000 N   0  0  0  0  0  0  0  0  0  0  0  0
   20.4709  -13.0498    0.0000 O   0  0  0  0  0  0  0  0  0  0  0  0
   17.3763  -14.8011    0.0000 C   0  0  0  0  0  0  0  0  0  0  0  0
  7  6  4  0  0  0  0
 12 26  1  0  0  0  0
  7 19  1  0  0  0  0
  6 15  1  0  0  0  0
 25  9  4  0  0  0  0
  1 11  1  0  0  0  0
 18 29  1  0  0  0  0
 22 16  4  0  0  0  0
 13 18  1  0  0  0  0
 17  3  4  0  0  0  0
 10 29  4  0  0  0  0
  8 20  1  0  0  0  0
 24  2  1  0  0  0  0
  1 13  1  0  0  0  0
 30 17  4  0  0  0  0
 25 32  1  0  0  0  0
  8 18  1  0  0  0  0
 21 16  4  0  0  0  0
 12 31  2  0  0  0  0
 28 12  1  0  0  0  0
 11 20  1  0  0  0  0
 21 14  4  0  0  0  0
 24 23  2  0  0  0  0
  3 24  1  0  0  0  0
 17 21  1  0  0  0  0
  5  4  1  0  0  0  0
  9 26  4  0  0  0  0
 14 27  4  0  0  0  0
 26  7  4  0  0  0  0
  6 25  4  0  0  0  0
 29 30  4  0  0  0  0
  1  5  1  6  0  0  0
 11 28  1  6  0  0  0
  3 10  4  0  0  0  0
 27 22  4  0  0  0  0
M  STY  1   1 DAT
M  SAL   1  1   9
M  SDT   1 MRV_IMPLICIT_H                                        
M  SDD   1     0.0000    0.0000    DR    ALL  0       0  
M  SED   1 IMPL_H1
M  END
> <From> 
www.bindingDB.org

> <BindingDB Reactant_set_id>
50271412

> <Ligand InChI>
InChI=1S/C19H19Cl2N5O4S2/c1-8-11(20)12(21)13(23-8)16(27)24-9-3-5-26(7-10(9)30-2)19-25-14(15(32-19)18(28)29)17-22-4-6-31-17/h4,6,9-10,23H,3,5,7H2,1-2H3,(H,24,27)(H,28,29)/t9-,10+/m1/s1

> <Ligand InChI Key>
WCCQHHYTDZGLAO-ZJUUUORDSA-N

> <BindingDB MonomerID>
50047347

> <BindingDB Ligand Name>
CHEMBL3314590

> <Target Name Assigned by Curator or DataSource>
DNA Gyrase Subunit B

> <Target Source Organism According to Curator or DataSource>
Staphylococcus aureus

> <Ki (nM)>


> <IC50 (nM)>
<9.8

> <Kd (nM)>


> <EC50 (nM)>


> <kon (M-1-s-1)>


> <koff (s-1)>


> <pH>


> <Temp C>


> <Curation/DataSource>
ChEMBL

> <Article DOI>
10.1021/jm500462x

> <PMID>
24959892

> <PubChem AID>


> <Patent Number>


> <Authors>
Basarab, GS; Hill, PJ; Garner, CE; Hull, K; Green, O; Sherer, BA; Dangel, PB; Manchester, JI; Bist, S; Hauck, S; Zhou, F; Uria-Nickelsen, M; Illingworth, R; Alm, R; Rooney, M; Eakin, AE

> <Institution>
AstraZeneca

> <Link to Ligand in BindingDB>
http://www.bindingdb.org/bind/chemsearch/marvin/MolStructure.jsp?monomerid=50047347

> <Link to Ligand-Target Pair in BindingDB>
http://www.bindingdb.org/jsp/dbsearch/PrimarySearch_ki.jsp?energyterm=kJ/mole&tag=pol&polymerid=2626&target=DNA+Gyrase+Subunit+B&column=ki&startPg=0&Increment=50&submit=Search

> <Link to Ligand-Target Pair in BindingDB>
http://www.bindingdb.org/jsp/dbsearch/PrimarySearch_ki.jsp?energyterm=kJ/mole&tag=r21&monomerid=50047347&enzyme=DNA+Gyrase+Subunit+B&column=ki&startPg=0&Increment=50&submit=Search

> <Ligand HET ID in PDB>


> <PDB ID(s) for Ligand-Target Complex>


> <PubChem CID>
25223122

> <PubChem SID>
313068775

> <ChEBI ID of Ligand>


> <ChEMBL ID of Ligand>


> <DrugBank ID of Ligand>


> <IUPHAR_GRAC ID of Ligand>


> <KEGG ID of Ligand>


> <ZINC ID of Ligand>


> <Number of Protein Chains in Target (>1 implies a multichain complex)>
1

> <BindingDB Target Chain Sequence>
MVTALSDVNNTDNYGAGQIQVLEGLEAVRKRPGMYIGSTSERGLHHLVWEIVDNSIDEALAGYANQIEVVIEKDNWIKVTDNGRGIPVDIQEKMGRPAVEVILTVLHAGGKFGGGGYKVSGGLHGVGSSVVNALSQDLEVYVHRNETIYHQAYKKGVPQFDLKEVGTTDKTGTVIRFKADGEIFTETTVYNYETLQQRIRELAFLNKGIQITLRDERDEENVREDSYHYEGGIKSYVELLNENKEPIHDEPIYIHQSKDDIEVEIAIQYNSGYATNLLTYANNIHTYEGGTHEDGFKRALTRVLNSYGLSSKIMKEEKDRLSGEDTREGMTAIISIKHGDPQFEGQTKTKLGNSEVRQVVDKLFSEHFERFLYENPQVARTVVEKGIMAARARVAAKKAREVTRRKSALDVASLPGKLADCSSKSPEECEIFLVEGDSAGGSTKSGRDSRTQAILPLRGKILNVEKARLDRILNNNEIRQMITAFGTGIGGDFDLAKARYHKIVIMTDADVDGAHIRTLLLTFFYRFMRPLIEAGYVYIAQPPLYKLTQGKQKYYVYNDRELDKLKSELNPTPKWSIARYKGLGEMNADQLWETTMNPEHRALLQVKLEDAIEADQTFEMLMGDVVENRRQFIEDNAVYANLDF

> <PDB ID(s) of Target Chain>


> <UniProt (SwissProt) Recommended Name of Target Chain>
DNA gyrase subunit B

> <UniProt (SwissProt) Entry Name of Target Chain>
GYRB_STAAU

> <UniProt (SwissProt) Primary ID of Target Chain>
P0A0K8

> <UniProt (SwissProt) Secondary ID(s) of Target Chain>
P20832

> <UniProt (SwissProt) Alternative ID(s) of Target Chain>


> <UniProt (TrEMBL) Submitted Name of Target Chain>


> <UniProt (TrEMBL) Entry Name of Target Chain>


> <UniProt (TrEMBL) Primary ID of Target Chain>


> <UniProt (TrEMBL) Secondary ID(s) of Target Chain>


> <UniProt (TrEMBL) Alternative ID(s) of Target Chain>


$$$$

  Mrv0541 03271611212D          

 33 36  0  0  0  0            999 V2000
   20.6803   -6.4200    0.0000 N   0  0  0  0  0  0  0  0  0  0  0  0
   21.5044   -6.3825    0.0000 C   0  0  0  0  0  0  0  0  0  0  0  0
   22.7893   -6.7352    0.0000 C   0  0  0  0  0  0  0  0  0  0  0  0
   14.9671   -5.0630    0.0000 Cl  0  0  0  0  0  0  0  0  0  0  0  0
   22.7520   -5.9110    0.0000 C   0  0  0  0  0  0  0  0  0  0  0  0
   16.4886   -6.5603    0.0000 N   0  0  0  0  0  0  0  0  0  0  0  0
   15.0485   -6.8561    0.0000 C   0  0  0  0  0  0  0  0  0  0  0  0
   17.7634   -5.8373    0.0000 C   0  0  0  0  0  0  0  0  0  0  0  0
   24.1647   -5.6972    0.0000 O   0  0  0  0  0  0  0  0  0  0  0  0
   19.4076   -5.7650    0.0000 C   0  0  0  0  0  0  0  0  0  0  0  0
   15.6558   -5.5172    0.0000 C   0  0  0  0  0  0  0  0  0  0  0  0
   21.9566   -5.6920    0.0000 S   0  0  0  0  0  0  0  0  0  0  0  0
   23.2732   -4.5806    0.0000 O   0  0  0  0  0  0  0  0  0  0  0  0
   22.0171   -7.0254    0.0000 N   0  0  0  0  0  0  0  0  0  0  0  0
   20.2964   -7.1502    0.0000 C   0  0  0  0  0  0  0  0  0  0  0  0
   18.2674   -7.9557    0.0000 C   0  0  0  0  0  0  0  0  0  0  0  0
   24.2157   -6.8198    0.0000 N   0  0  0  0  0  0  0  0  0  0  0  0
   16.6492   -4.4322    0.0000 Cl  0  0  0  0  0  0  0  0  0  0  0  0
   19.4722   -7.1875    0.0000 C   0  0  2  0  0  0  0  0  0  0  0  0
   19.0916   -7.9194    0.0000 O   0  0  0  0  0  0  0  0  0  0  0  0
   24.1181   -8.4669    0.0000 C   0  0  0  0  0  0  0  0  0  0  0  0
   23.4293   -8.0128    0.0000 C   0  0  0  0  0  0  0  0  0  0  0  0
   18.2079   -6.5323    0.0000 N   0  0  0  0  0  0  0  0  0  0  0  0
   23.4781   -7.1892    0.0000 C   0  0  0  0  0  0  0  0  0  0  0  0
   16.4280   -5.2270    0.0000 C   0  0  0  0  0  0  0  0  0  0  0  0
   24.9046   -7.2739    0.0000 C   0  0  0  0  0  0  0  0  0  0  0  0
   15.6932   -6.3414    0.0000 C   0  0  0  0  0  0  0  0  0  0  0  0
   23.3966   -5.3962    0.0000 C   0  0  0  0  0  0  0  0  0  0  0  0
   24.8557   -8.0974    0.0000 C   0  0  0  0  0  0  0  0  0  0  0  0
   19.0321   -6.4948    0.0000 C   0  0  2  0  0  0  0  0  0  0  0  0
   20.2318   -5.7277    0.0000 C   0  0  0  0  0  0  0  0  0  0  0  0
   18.1431   -5.1048    0.0000 O   0  0  0  0  0  0  0  0  0  0  0  0
   16.9394   -5.8747    0.0000 C   0  0  0  0  0  0  0  0  0  0  0  0
 25 18  1  0  0  0  0
 29 26  4  0  0  0  0
 20 16  1  0  0  0  0
 24 22  4  0  0  0  0
 14  3  4  0  0  0  0
 31  1  1  0  0  0  0
 24 17  4  0  0  0  0
  8 33  1  0  0  0  0
 11  4  1  0  0  0  0
 28 13  2  0  0  0  0
 25 11  4  0  0  0  0
  2 14  4  0  0  0  0
 19 30  1  0  0  0  0
 33 25  4  0  0  0  0
  5 28  1  0  0  0  0
  1  2  1  0  0  0  0
 19 20  1  6  0  0  0
 19 15  1  0  0  0  0
 27  6  4  0  0  0  0
 12  2  4  0  0  0  0
 28  9  1  0  0  0  0
 31 10  1  0  0  0  0
  8 32  2  0  0  0  0
 11 27  4  0  0  0  0
  3 24  1  0  0  0  0
  5 12  4  0  0  0  0
 21 29  4  0  0  0  0
  6 33  4  0  0  0  0
  3  5  4  0  0  0  0
 30 10  1  0  0  0  0
 22 21  4  0  0  0  0
 27  7  1  0  0  0  0
 30 23  1  6  0  0  0
 23  8  1  0  0  0  0
 26 17  4  0  0  0  0
 15  1  1  0  0  0  0
M  STY  1   1 DAT
M  SAL   1  1   6
M  SDT   1 MRV_IMPLICIT_H                                        
M  SDD   1     0.0000    0.0000    DR    ALL  0       0  
M  SED   1 IMPL_H1
M  END
> <From> 
www.bindingDB.org

> <BindingDB Reactant_set_id>
50271411

> <Ligand InChI>
InChI=1S/C21H21Cl2N5O4S/c1-10-14(22)15(23)17(25-10)19(29)26-11-6-8-28(9-13(11)32-2)21-27-16(18(33-21)20(30)31)12-5-3-4-7-24-12/h3-5,7,11,13,25H,6,8-9H2,1-2H3,(H,26,29)(H,30,31)/t11-,13+/m1/s1

> <Ligand InChI Key>
BBXARSODFBVAFV-YPMHNXCESA-N

> <BindingDB MonomerID>
50047346

> <BindingDB Ligand Name>
CHEMBL3314589

> <Target Name Assigned by Curator or DataSource>
DNA Gyrase Subunit B

> <Target Source Organism According to Curator or DataSource>
Staphylococcus aureus

> <Ki (nM)>


> <IC50 (nM)>
<9.8

> <Kd (nM)>


> <EC50 (nM)>


> <kon (M-1-s-1)>


> <koff (s-1)>


> <pH>


> <Temp C>


> <Curation/DataSource>
ChEMBL

> <Article DOI>
10.1021/jm500462x

> <PMID>
24959892

> <PubChem AID>


> <Patent Number>


> <Authors>
Basarab, GS; Hill, PJ; Garner, CE; Hull, K; Green, O; Sherer, BA; Dangel, PB; Manchester, JI; Bist, S; Hauck, S; Zhou, F; Uria-Nickelsen, M; Illingworth, R; Alm, R; Rooney, M; Eakin, AE

> <Institution>
AstraZeneca

> <Link to Ligand in BindingDB>
http://www.bindingdb.org/bind/chemsearch/marvin/MolStructure.jsp?monomerid=50047346

> <Link to Ligand-Target Pair in BindingDB>
http://www.bindingdb.org/jsp/dbsearch/PrimarySearch_ki.jsp?energyterm=kJ/mole&tag=pol&polymerid=2626&target=DNA+Gyrase+Subunit+B&column=ki&startPg=0&Increment=50&submit=Search

> <Link to Ligand-Target Pair in BindingDB>
http://www.bindingdb.org/jsp/dbsearch/PrimarySearch_ki.jsp?energyterm=kJ/mole&tag=r21&monomerid=50047346&enzyme=DNA+Gyrase+Subunit+B&column=ki&startPg=0&Increment=50&submit=Search

> <Ligand HET ID in PDB>


> <PDB ID(s) for Ligand-Target Complex>


> <PubChem CID>
25223126

> <PubChem SID>
313068774

> <ChEBI ID of Ligand>


> <ChEMBL ID of Ligand>


> <DrugBank ID of Ligand>


> <IUPHAR_GRAC ID of Ligand>


> <KEGG ID of Ligand>


> <ZINC ID of Ligand>


> <Number of Protein Chains in Target (>1 implies a multichain complex)>
1

> <BindingDB Target Chain Sequence>
MVTALSDVNNTDNYGAGQIQVLEGLEAVRKRPGMYIGSTSERGLHHLVWEIVDNSIDEALAGYANQIEVVIEKDNWIKVTDNGRGIPVDIQEKMGRPAVEVILTVLHAGGKFGGGGYKVSGGLHGVGSSVVNALSQDLEVYVHRNETIYHQAYKKGVPQFDLKEVGTTDKTGTVIRFKADGEIFTETTVYNYETLQQRIRELAFLNKGIQITLRDERDEENVREDSYHYEGGIKSYVELLNENKEPIHDEPIYIHQSKDDIEVEIAIQYNSGYATNLLTYANNIHTYEGGTHEDGFKRALTRVLNSYGLSSKIMKEEKDRLSGEDTREGMTAIISIKHGDPQFEGQTKTKLGNSEVRQVVDKLFSEHFERFLYENPQVARTVVEKGIMAARARVAAKKAREVTRRKSALDVASLPGKLADCSSKSPEECEIFLVEGDSAGGSTKSGRDSRTQAILPLRGKILNVEKARLDRILNNNEIRQMITAFGTGIGGDFDLAKARYHKIVIMTDADVDGAHIRTLLLTFFYRFMRPLIEAGYVYIAQPPLYKLTQGKQKYYVYNDRELDKLKSELNPTPKWSIARYKGLGEMNADQLWETTMNPEHRALLQVKLEDAIEADQTFEMLMGDVVENRRQFIEDNAVYANLDF

> <PDB ID(s) of Target Chain>


> <UniProt (SwissProt) Recommended Name of Target Chain>
DNA gyrase subunit B

> <UniProt (SwissProt) Entry Name of Target Chain>
GYRB_STAAU

> <UniProt (SwissProt) Primary ID of Target Chain>
P0A0K8

> <UniProt (SwissProt) Secondary ID(s) of Target Chain>
P20832

> <UniProt (SwissProt) Alternative ID(s) of Target Chain>


> <UniProt (TrEMBL) Submitted Name of Target Chain>


> <UniProt (TrEMBL) Entry Name of Target Chain>


> <UniProt (TrEMBL) Primary ID of Target Chain>


> <UniProt (TrEMBL) Secondary ID(s) of Target Chain>


> <UniProt (TrEMBL) Alternative ID(s) of Target Chain>


$$$$

  SciTegic12201612272D

 32 36  0  0  0  0            999 V2000
    0.2917   -0.7475    0.0000 C   0  0
    0.2917    0.7475    0.0000 C   0  0
   -1.0028    1.5132    0.0000 C   0  0
   -2.3155    0.7475    0.0000 C   0  0
   -2.3155   -0.7475    0.0000 C   0  0
   -1.0028   -1.5132    0.0000 N   0  0
    2.5889    0.0182    0.0000 N   0  0
    1.7138   -1.2033    0.0000 N   0  0
    1.7138    1.2033    0.0000 C   0  0
   -3.3560   -1.3452    0.0000 O   0  0
   -0.9971   -3.0138    0.0000 C   0  0
   -2.2935   -3.7700    0.0000 C   0  0
   -2.2889   -4.9699    0.0000 C   0  0
    3.6243    2.9682    0.0000 S   0  0
    3.7308    4.4645    0.0000 C   0  0
    2.3406    5.0280    0.0000 N   0  0
    1.3751    3.8801    0.0000 C   0  0
    2.1749    2.6315    0.0000 C   0  0
    6.3724    4.6552    0.0000 C   0  0
    5.0044    5.2582    0.0000 C   0  0
    4.8363    6.7505    0.0000 C   0  0
    6.0460    7.6374    0.0000 C   0  0
    7.4189    7.0332    0.0000 C   0  0
    7.5821    5.5421    0.0000 N   0  0
    8.6311    7.9182    0.0000 C   0  0
   10.0039    7.3117    0.0000 N   0  0
   11.2168    8.1944    0.0000 C   0  0
   12.5876    7.5854    0.0000 C   0  0
   12.7457    6.0938    0.0000 N   0  0
   11.5329    5.2111    0.0000 C   0  0
   10.1621    5.8200    0.0000 C   0  0
   13.8424    5.6067    0.0000 C   0  0
  1  2  2  0
  2  3  1  0
  3  4  2  0
  4  5  1  0
  5  6  1  0
  1  6  1  0
  7  8  1  0
  7  9  2  0
  1  8  1  0
  2  9  1  0
  5 10  2  0
 11 12  1  0
 12 13  1  0
  6 11  1  0
 14 15  1  0
 15 16  2  0
 16 17  1  0
 17 18  2  0
 14 18  1  0
 19 20  1  0
 20 21  2  0
 21 22  1  0
 22 23  2  0
 23 24  1  0
 19 24  2  0
 26 27  1  0
 27 28  1  0
 28 29  1  0
 29 30  1  0
 30 31  1  0
 26 31  1  0
 29 32  1  0
 25 26  1  0
 23 25  1  0
 15 20  1  0
  9 18  1  0
M  END
> <From> 
www.bindingDB.org

> <BindingDB Reactant_set_id>
50498678

> <Ligand InChI>
InChI=1S/C23H27N7OS/c1-3-8-30-20(31)7-6-18-21(26-27-22(18)30)19-14-25-23(32-19)16-4-5-17(24-13-16)15-29-11-9-28(2)10-12-29/h4-7,13-14H,3,8-12,15H2,1-2H3,(H,26,27)

> <Ligand InChI Key>
ZXFXGNACVGPULM-UHFFFAOYSA-N

> <BindingDB MonomerID>
50173722

> <BindingDB Ligand Name>
CHEMBL3809648

> <Target Name Assigned by Curator or DataSource>
DNA gyrase

> <Target Source Organism According to Curator or DataSource>
Staphylococcus aureus

> <Ki (nM)>


> <IC50 (nM)>
 10.0

> <Kd (nM)>


> <EC50 (nM)>


> <kon (M-1-s-1)>


> <koff (s-1)>


> <pH>


> <Temp C>


> <Curation/DataSource>
ChEMBL

> <Article DOI>
10.1021/acsmedchemlett.5b00368

> <PMID>
27096044

> <PubChem AID>


> <Patent Number>


> <Authors>
Cross, JB; Zhang, J; Yang, Q; Mesleh, MF; Romero, JA; Wang, B; Bevan, D; Poutsiaka, KM; Epie, F; Moy, T; Daniel, A; Shotwell, J; Chamberlain, B; Carter, N; Andersen, O; Barker, J; Ryan, MD; Metcalf, CA; Silverman, J; Nguyen, K; Lippa, B; Dolle, RE

> <Institution>
Cubist Pharmaceuticals, Inc.

> <Link to Ligand in BindingDB>
http://www.bindingdb.org/bind/chemsearch/marvin/MolStructure.jsp?monomerid=50173722

> <Link to Ligand-Target Pair in BindingDB>
http://www.bindingdb.org/jsp/dbsearch/PrimarySearch_ki.jsp?energyterm=kJ/mole&tag=pol&polymerid=2626&target=DNA+gyrase&column=ki&startPg=0&Increment=50&submit=Search

> <Link to Ligand-Target Pair in BindingDB>
http://www.bindingdb.org/jsp/dbsearch/PrimarySearch_ki.jsp?energyterm=kJ/mole&tag=r21&monomerid=50173722&enzyme=DNA+gyrase&column=ki&startPg=0&Increment=50&submit=Search

> <Ligand HET ID in PDB>


> <PDB ID(s) for Ligand-Target Complex>


> <PubChem CID>
127045226

> <PubChem SID>
104059586

> <ChEBI ID of Ligand>


> <ChEMBL ID of Ligand>


> <DrugBank ID of Ligand>


> <IUPHAR_GRAC ID of Ligand>


> <KEGG ID of Ligand>


> <ZINC ID of Ligand>


> <Number of Protein Chains in Target (>1 implies a multichain complex)>
1

> <BindingDB Target Chain Sequence>
MVTALSDVNNTDNYGAGQIQVLEGLEAVRKRPGMYIGSTSERGLHHLVWEIVDNSIDEALAGYANQIEVVIEKDNWIKVTDNGRGIPVDIQEKMGRPAVEVILTVLHAGGKFGGGGYKVSGGLHGVGSSVVNALSQDLEVYVHRNETIYHQAYKKGVPQFDLKEVGTTDKTGTVIRFKADGEIFTETTVYNYETLQQRIRELAFLNKGIQITLRDERDEENVREDSYHYEGGIKSYVELLNENKEPIHDEPIYIHQSKDDIEVEIAIQYNSGYATNLLTYANNIHTYEGGTHEDGFKRALTRVLNSYGLSSKIMKEEKDRLSGEDTREGMTAIISIKHGDPQFEGQTKTKLGNSEVRQVVDKLFSEHFERFLYENPQVARTVVEKGIMAARARVAAKKAREVTRRKSALDVASLPGKLADCSSKSPEECEIFLVEGDSAGGSTKSGRDSRTQAILPLRGKILNVEKARLDRILNNNEIRQMITAFGTGIGGDFDLAKARYHKIVIMTDADVDGAHIRTLLLTFFYRFMRPLIEAGYVYIAQPPLYKLTQGKQKYYVYNDRELDKLKSELNPTPKWSIARYKGLGEMNADQLWETTMNPEHRALLQVKLEDAIEADQTFEMLMGDVVENRRQFIEDNAVYANLDF

> <PDB ID(s) of Target Chain>


> <UniProt (SwissProt) Recommended Name of Target Chain>
DNA gyrase subunit B

> <UniProt (SwissProt) Entry Name of Target Chain>
GYRB_STAAU

> <UniProt (SwissProt) Primary ID of Target Chain>
P0A0K8

> <UniProt (SwissProt) Secondary ID(s) of Target Chain>
P20832

> <UniProt (SwissProt) Alternative ID(s) of Target Chain>


> <UniProt (TrEMBL) Submitted Name of Target Chain>


> <UniProt (TrEMBL) Entry Name of Target Chain>


> <UniProt (TrEMBL) Primary ID of Target Chain>


> <UniProt (TrEMBL) Secondary ID(s) of Target Chain>


> <UniProt (TrEMBL) Alternative ID(s) of Target Chain>


$$$$

  Mrv0541 11231422262D          

 27 29  0  0  0  0            999 V2000
   16.0916   -4.3792    0.0000 N   0  0  0  0  0  0  0  0  0  0  0  0
   15.4183   -3.8924    0.0000 C   0  0  0  0  0  0  0  0  0  0  0  0
   15.6750   -3.1041    0.0000 C   0  0  0  0  0  0  0  0  0  0  0  0
   16.5041   -3.1041    0.0000 C   0  0  0  0  0  0  0  0  0  0  0  0
   16.7607   -3.8929    0.0000 C   0  0  0  0  0  0  0  0  0  0  0  0
   14.6339   -4.1481    0.0000 C   0  0  0  0  0  0  0  0  0  0  0  0
   17.4776   -4.3012    0.0000 C   0  0  0  0  0  0  0  0  0  0  0  0
   17.4824   -5.1262    0.0000 O   0  0  0  0  0  0  0  0  0  0  0  0
   18.1896   -3.8846    0.0000 N   0  0  0  0  0  0  0  0  0  0  0  0
   18.9065   -4.2929    0.0000 C   0  0  0  0  0  0  0  0  0  0  0  0
   18.9077   -5.1200    0.0000 C   0  0  0  0  0  0  0  0  0  0  0  0
   19.6204   -5.5282    0.0000 C   0  0  0  0  0  0  0  0  0  0  0  0
   20.3349   -5.1150    0.0000 N   0  0  0  0  0  0  0  0  0  0  0  0
   20.3321   -4.2890    0.0000 C   0  0  0  0  0  0  0  0  0  0  0  0
   19.6147   -3.8763    0.0000 C   0  0  0  0  0  0  0  0  0  0  0  0
   21.0503   -5.5260    0.0000 C   0  0  0  0  0  0  0  0  0  0  0  0
   21.0484   -6.3511    0.0000 N   0  0  0  0  0  0  0  0  0  0  0  0
   21.7629   -6.7620    0.0000 C   0  0  0  0  0  0  0  0  0  0  0  0
   22.4775   -6.3480    0.0000 C   0  0  0  0  0  0  0  0  0  0  0  0
   22.4731   -5.5187    0.0000 C   0  0  0  0  0  0  0  0  0  0  0  0
   21.7580   -5.1115    0.0000 C   0  0  0  0  0  0  0  0  0  0  0  0
   21.7642   -7.5870    0.0000 Cl  0  0  0  0  0  0  0  0  0  0  0  0
   23.1852   -5.1022    0.0000 C   0  0  0  0  0  0  0  0  0  0  0  0
   23.9020   -5.5107    0.0000 O   0  0  0  0  0  0  0  0  0  0  0  0
   23.1806   -4.2772    0.0000 O   0  0  0  0  0  0  0  0  0  0  0  0
   15.1903   -2.4365    0.0000 Cl  0  0  0  0  0  0  0  0  0  0  0  0
   16.9889   -2.4366    0.0000 Cl  0  0  0  0  0  0  0  0  0  0  0  0
 10 15  1  0  0  0  0
 11 12  1  0  0  0  0
 12 13  1  0  0  0  0
 13 14  1  0  0  0  0
 14 15  1  0  0  0  0
  1  2  1  0  0  0  0
 13 16  1  0  0  0  0
  7  8  2  0  0  0  0
 16 17  2  0  0  0  0
  3  4  1  0  0  0  0
 17 18  1  0  0  0  0
  7  9  1  0  0  0  0
 18 19  2  0  0  0  0
  4  5  2  0  0  0  0
 19 20  1  0  0  0  0
  9 10  1  0  0  0  0
 20 21  2  0  0  0  0
 21 16  1  0  0  0  0
 10 11  1  0  0  0  0
 18 22  1  0  0  0  0
  5  1  1  0  0  0  0
 20 23  1  0  0  0  0
  2  3  2  0  0  0  0
 23 24  1  0  0  0  0
  2  6  1  0  0  0  0
 23 25  2  0  0  0  0
  3 26  1  0  0  0  0
  5  7  1  0  0  0  0
  4 27  1  0  0  0  0
M  END
> <From> 
www.bindingDB.org

> <BindingDB Reactant_set_id>
50705125

> <Ligand InChI>
InChI=1S/C17H17Cl3N4O3/c1-8-13(19)14(20)15(21-8)16(25)22-10-2-4-24(5-3-10)12-7-9(17(26)27)6-11(18)23-12/h6-7,10,21H,2-5H2,1H3,(H,22,25)(H,26,27)

> <Ligand InChI Key>
DCZRFEDKJFMNBE-UHFFFAOYSA-N

> <BindingDB MonomerID>
50358847

> <BindingDB Ligand Name>
CHEMBL1923432

> <Target Name Assigned by Curator or DataSource>
DNA Gyrase Subunit B

> <Target Source Organism According to Curator or DataSource>
Staphylococcus aureus

> <Ki (nM)>


> <IC50 (nM)>
 10

> <Kd (nM)>


> <EC50 (nM)>


> <kon (M-1-s-1)>


> <koff (s-1)>


> <pH>


> <Temp C>


> <Curation/DataSource>
ChEMBL

> <Article DOI>
10.1016/j.bmcl.2011.10.010

> <PMID>
22041057

> <PubChem AID>


> <Patent Number>


> <Authors>
Sherer, BA; Hull, K; Green, O; Basarab, G; Hauck, S; Hill, P; Loch, JT; Mullen, G; Bist, S; Bryant, J; Boriack-Sjodin, A; Read, J; DeGrace, N; Uria-Nickelsen, M; Illingworth, RN; Eakin, AE

> <Institution>
AstraZeneca R&amp;D Boston

> <Link to Ligand in BindingDB>
http://www.bindingdb.org/bind/chemsearch/marvin/MolStructure.jsp?monomerid=50358847

> <Link to Ligand-Target Pair in BindingDB>
http://www.bindingdb.org/jsp/dbsearch/PrimarySearch_ki.jsp?energyterm=kJ/mole&tag=pol&polymerid=2626&target=DNA+Gyrase+Subunit+B&column=ki&startPg=0&Increment=50&submit=Search

> <Link to Ligand-Target Pair in BindingDB>
http://www.bindingdb.org/jsp/dbsearch/PrimarySearch_ki.jsp?energyterm=kJ/mole&tag=r21&monomerid=50358847&enzyme=DNA+Gyrase+Subunit+B&column=ki&startPg=0&Increment=50&submit=Search

> <Ligand HET ID in PDB>


> <PDB ID(s) for Ligand-Target Complex>


> <PubChem CID>
57397809

> <PubChem SID>
136962871

> <ChEBI ID of Ligand>


> <ChEMBL ID of Ligand>
CHEMBL1923432

> <DrugBank ID of Ligand>


> <IUPHAR_GRAC ID of Ligand>


> <KEGG ID of Ligand>


> <ZINC ID of Ligand>
ZINC73391238

> <Number of Protein Chains in Target (>1 implies a multichain complex)>
1

> <BindingDB Target Chain Sequence>
MVTALSDVNNTDNYGAGQIQVLEGLEAVRKRPGMYIGSTSERGLHHLVWEIVDNSIDEALAGYANQIEVVIEKDNWIKVTDNGRGIPVDIQEKMGRPAVEVILTVLHAGGKFGGGGYKVSGGLHGVGSSVVNALSQDLEVYVHRNETIYHQAYKKGVPQFDLKEVGTTDKTGTVIRFKADGEIFTETTVYNYETLQQRIRELAFLNKGIQITLRDERDEENVREDSYHYEGGIKSYVELLNENKEPIHDEPIYIHQSKDDIEVEIAIQYNSGYATNLLTYANNIHTYEGGTHEDGFKRALTRVLNSYGLSSKIMKEEKDRLSGEDTREGMTAIISIKHGDPQFEGQTKTKLGNSEVRQVVDKLFSEHFERFLYENPQVARTVVEKGIMAARARVAAKKAREVTRRKSALDVASLPGKLADCSSKSPEECEIFLVEGDSAGGSTKSGRDSRTQAILPLRGKILNVEKARLDRILNNNEIRQMITAFGTGIGGDFDLAKARYHKIVIMTDADVDGAHIRTLLLTFFYRFMRPLIEAGYVYIAQPPLYKLTQGKQKYYVYNDRELDKLKSELNPTPKWSIARYKGLGEMNADQLWETTMNPEHRALLQVKLEDAIEADQTFEMLMGDVVENRRQFIEDNAVYANLDF

> <PDB ID(s) of Target Chain>


> <UniProt (SwissProt) Recommended Name of Target Chain>
DNA gyrase subunit B

> <UniProt (SwissProt) Entry Name of Target Chain>
GYRB_STAAU

> <UniProt (SwissProt) Primary ID of Target Chain>
P0A0K8

> <UniProt (SwissProt) Secondary ID(s) of Target Chain>
P20832

> <UniProt (SwissProt) Alternative ID(s) of Target Chain>


> <UniProt (TrEMBL) Submitted Name of Target Chain>


> <UniProt (TrEMBL) Entry Name of Target Chain>


> <UniProt (TrEMBL) Primary ID of Target Chain>


> <UniProt (TrEMBL) Secondary ID(s) of Target Chain>


> <UniProt (TrEMBL) Alternative ID(s) of Target Chain>


$$$$

  Mrv0541 11241420052D          

 26 28  0  0  0  0            999 V2000
   11.2026   -2.9166    0.0000 C   0  0  0  0  0  0  0  0  0  0  0  0
   11.2015   -3.7440    0.0000 C   0  0  0  0  0  0  0  0  0  0  0  0
   11.9163   -4.1568    0.0000 N   0  0  0  0  0  0  0  0  0  0  0  0
   11.9145   -2.5039    0.0000 C   0  0  0  0  0  0  0  0  0  0  0  0
   10.4881   -2.5043    0.0000 C   0  0  0  0  0  0  0  0  0  0  0  0
   10.4913   -1.6784    0.0000 C   0  0  0  0  0  0  0  0  0  0  0  0
    9.7775   -1.2661    0.0000 N   0  0  0  0  0  0  0  0  0  0  0  0
    9.0622   -1.6788    0.0000 C   0  0  0  0  0  0  0  0  0  0  0  0
    9.0651   -2.5081    0.0000 C   0  0  0  0  0  0  0  0  0  0  0  0
    9.7794   -2.9166    0.0000 C   0  0  0  0  0  0  0  0  0  0  0  0
   12.6298   -2.9129    0.0000 C   0  0  0  0  0  0  0  0  0  0  0  0
   12.6301   -3.7440    0.0000 C   0  0  0  0  0  0  0  0  0  0  0  0
   13.4206   -4.0006    0.0000 S   0  0  0  0  0  0  0  0  0  0  0  0
   13.9089   -3.3281    0.0000 C   0  0  0  0  0  0  0  0  0  0  0  0
   13.4201   -2.6560    0.0000 N   0  0  0  0  0  0  0  0  0  0  0  0
   14.7339   -3.3278    0.0000 N   0  0  0  0  0  0  0  0  0  0  0  0
   15.1461   -2.6132    0.0000 C   0  0  0  0  0  0  0  0  0  0  0  0
   15.9711   -2.6129    0.0000 O   0  0  0  0  0  0  0  0  0  0  0  0
   14.7334   -1.8989    0.0000 N   0  0  0  0  0  0  0  0  0  0  0  0
   15.1456   -1.1843    0.0000 C   0  0  0  0  0  0  0  0  0  0  0  0
   14.7329   -0.4699    0.0000 C   0  0  0  0  0  0  0  0  0  0  0  0
   10.4867   -4.1559    0.0000 O   0  0  0  0  0  0  0  0  0  0  0  0
   11.9165   -4.9818    0.0000 C   0  0  0  0  0  0  0  0  0  0  0  0
   11.2021   -5.3945    0.0000 C   0  0  0  0  0  0  0  0  0  0  0  0
   12.6310   -5.3941    0.0000 C   0  0  0  0  0  0  0  0  0  0  0  0
    8.3522   -2.9232    0.0000 F   0  0  0  0  0  0  0  0  0  0  0  0
  1  2  1  0  0  0  0
  2  3  1  0  0  0  0
  3 12  1  0  0  0  0
 11  4  1  0  0  0  0
  4  1  2  0  0  0  0
  1  5  1  0  0  0  0
  5  6  2  0  0  0  0
  6  7  1  0  0  0  0
  7  8  2  0  0  0  0
  8  9  1  0  0  0  0
  9 10  2  0  0  0  0
 10  5  1  0  0  0  0
 11 12  2  0  0  0  0
 12 13  1  0  0  0  0
 13 14  1  0  0  0  0
 14 15  2  0  0  0  0
 15 11  1  0  0  0  0
 14 16  1  0  0  0  0
 16 17  1  0  0  0  0
 17 18  2  0  0  0  0
 17 19  1  0  0  0  0
 19 20  1  0  0  0  0
 20 21  1  0  0  0  0
  2 22  2  0  0  0  0
  3 23  1  0  0  0  0
 23 24  1  0  0  0  0
 23 25  1  0  0  0  0
  9 26  1  0  0  0  0
M  END
> <From> 
www.bindingDB.org

> <BindingDB Reactant_set_id>
51091619

> <Ligand InChI>
InChI=1S/C17H18FN5O2S/c1-4-20-16(25)22-17-21-13-6-12(10-5-11(18)8-19-7-10)14(24)23(9(2)3)15(13)26-17/h5-9H,4H2,1-3H3,(H2,20,21,22,25)

> <Ligand InChI Key>
UOTOVOLUGUVSRN-UHFFFAOYSA-N

> <BindingDB MonomerID>
50447307

> <BindingDB Ligand Name>
CHEMBL3114198

> <Target Name Assigned by Curator or DataSource>
DNA gyrase subunit B

> <Target Source Organism According to Curator or DataSource>


> <Ki (nM)>


> <IC50 (nM)>
 10.0

> <Kd (nM)>


> <EC50 (nM)>


> <kon (M-1-s-1)>


> <koff (s-1)>


> <pH>


> <Temp C>


> <Curation/DataSource>
ChEMBL

> <Article DOI>
10.1016/j.bmcl.2013.12.080

> <PMID>
24405701

> <PubChem AID>


> <Patent Number>


> <Authors>
Kale, RR; Kale, MG; Waterson, D; Raichurkar, A; Hameed, SP; Manjunatha, MR; Kishore Reddy, BK; Malolanarasimhan, K; Shinde, V; Koushik, K; Jena, LK; Menasinakai, S; Humnabadkar, V; Madhavapeddi, P; Basavarajappa, H; Sharma, S; Nandishaiah, R; Mahesh Kumar, KN; Ganguly, S; Ahuja, V; Gaonkar, S; Naveen Kumar, CN; Ogg, D; Boriack-Sjodin, PA; Sambandamurthy, VK; de Sousa, SM; Ghorpade, SR

> <Institution>
AstraZeneca

> <Link to Ligand in BindingDB>
http://www.bindingdb.org/bind/chemsearch/marvin/MolStructure.jsp?monomerid=50447307

> <Link to Ligand-Target Pair in BindingDB>
http://www.bindingdb.org/jsp/dbsearch/PrimarySearch_ki.jsp?energyterm=kJ/mole&tag=pol&polymerid=50006452&target=DNA+gyrase+subunit+B&column=ki&startPg=0&Increment=50&submit=Search

> <Link to Ligand-Target Pair in BindingDB>
http://www.bindingdb.org/jsp/dbsearch/PrimarySearch_ki.jsp?energyterm=kJ/mole&tag=r21&monomerid=50447307&enzyme=DNA+gyrase+subunit+B&column=ki&startPg=0&Increment=50&submit=Search

> <Ligand HET ID in PDB>


> <PDB ID(s) for Ligand-Target Complex>


> <PubChem CID>
76328605

> <PubChem SID>
194945203

> <ChEBI ID of Ligand>


> <ChEMBL ID of Ligand>
CHEMBL3114198

> <DrugBank ID of Ligand>


> <IUPHAR_GRAC ID of Ligand>


> <KEGG ID of Ligand>


> <ZINC ID of Ligand>


> <Number of Protein Chains in Target (>1 implies a multichain complex)>
1

> <BindingDB Target Chain Sequence>
MAAQKNNAPKEYGADSITILEGLEAVRKRPGMYIGSTGERGLHHLIWEVVDNAVDEAMAGFATRVDVKIHADGSVEVRDDGRGIPVEMHATGMPTIDVVMTQLHAGGKFDGETYAVSGGLHGVGVSVVNALSTRLEATVLRDGYEWFQYYDRSVPGKLKQGGETKETGTTIRFWADPEIFETTDYNFETVARRLQEMAFLNKGLTIELTDERVTAEEVVDDVVKDTAEAPKTADEKAAEATGPSKVKHRVFHYPGGLVDYVKHINRTKTPIQQSIIDFDGKGPGHEVEIAMQWNAGYSESVHTFANTINTHEGGTHEEGFRAALTSVVNRYAKDKKLLKDKDPNLTGDDIREGLAAVISVKVAEPQFEGQTKTKLGNTEVKSFVQKICNEQLQHWFEANPAEAKTVVNKAVSSAQARIAARKARELVRRKSATDIGGLPGKLADCRSTDPSKSELYVVEGDSAGGSAKSGRDSMFQAILPLRGKIINVEKARIDRVLKNTEVQSIITALGTGIHDEFDISKLRYHKIVLMADADVDGQHISTLLLTLLFRFMKPLVENGHIFLAQPPLYKLKWQRSEPEFAYSDRERDGLLEAGRAAGKKINVDDGIQRYKGLGEMDAKELWETTMDPSVRVLRQVTLDDAAAADELFSILMGEDVEARRSFITRNAKDVRFLDV

> <PDB ID(s) of Target Chain>
4BAE

> <UniProt (SwissProt) Recommended Name of Target Chain>
DNA gyrase subunit B

> <UniProt (SwissProt) Entry Name of Target Chain>
GYRB_MYCSM

> <UniProt (SwissProt) Primary ID of Target Chain>
P0C559

> <UniProt (SwissProt) Secondary ID(s) of Target Chain>
P48355,Q59555

> <UniProt (SwissProt) Alternative ID(s) of Target Chain>


> <UniProt (TrEMBL) Submitted Name of Target Chain>


> <UniProt (TrEMBL) Entry Name of Target Chain>


> <UniProt (TrEMBL) Primary ID of Target Chain>


> <UniProt (TrEMBL) Secondary ID(s) of Target Chain>


> <UniProt (TrEMBL) Alternative ID(s) of Target Chain>


$$$$

  SciTegic02271514412D

 34 36  0  0  0  0            999 V2000
    7.8336   -3.0863    0.0000 C   0  0
    7.0095   -3.1236    0.0000 C   0  0
    6.6339   -3.8534    0.0000 C   0  0  2  0  0  0
    7.0741   -4.5462    0.0000 C   0  0  2  0  0  0
    7.8983   -4.5088    0.0000 C   0  0
    8.2822   -3.7786    0.0000 N   0  0
    5.8098   -3.8909    0.0000 N   0  0
    5.3653   -3.1959    0.0000 C   0  0
    4.5412   -3.2333    0.0000 C   0  0
    5.7450   -2.4634    0.0000 O   0  0
    9.1062   -3.7412    0.0000 C   0  0
    4.0299   -2.5856    0.0000 C   0  0
    3.2576   -2.8758    0.0000 C   0  0
    3.2951   -3.7000    0.0000 C   0  0
    4.0905   -3.9189    0.0000 N   0  0
    9.6190   -4.3840    0.0000 N   0  0
   10.3912   -4.0938    0.0000 C   0  0
   10.3538   -3.2696    0.0000 C   0  0
    9.5584   -3.0507    0.0000 S   0  0
   10.9985   -2.7549    0.0000 C   0  0
   11.7665   -3.0558    0.0000 O   0  0
   10.8750   -1.9392    0.0000 O   0  0
    2.6504   -4.2147    0.0000 C   0  0
    4.2511   -1.7908    0.0000 Cl  0  0
    2.5689   -2.4216    0.0000 Cl  0  0
    6.6934   -5.2781    0.0000 O   0  0
    5.8692   -5.3143    0.0000 C   0  0
   11.0799   -4.5479    0.0000 C   0  0
   11.0310   -5.3714    0.0000 O   0  0
   11.8175   -4.1785    0.0000 N   0  0
   12.5129   -4.6370    0.0000 C   0  0
   13.2576   -4.2641    0.0000 C   0  0
   13.9528   -4.7225    0.0000 O   0  0
   14.6976   -4.3496    0.0000 C   0  0
  1  2  1  0
  1  6  1  0
  2  3  1  0
  3  4  1  0
  4  5  1  0
  5  6  1  0
  3  7  1  6
  7  8  1  0
  8  9  1  0
  8 10  2  0
  6 11  1  0
  9 12  2  0
 12 13  1  0
 13 14  2  0
 14 15  1  0
 15  9  1  0
 11 16  2  0
 16 17  1  0
 17 18  2  0
 18 19  1  0
 19 11  1  0
 18 20  1  0
 20 21  1  0
 20 22  2  0
 14 23  1  0
 12 24  1  0
 13 25  1  0
  4 26  1  6
 26 27  1  0
 17 28  1  0
 28 29  2  0
 28 30  1  0
 30 31  1  0
 31 32  1  0
 32 33  1  0
 33 34  1  0
M  END
> <From> 
www.bindingDB.org

> <BindingDB Reactant_set_id>
50271360

> <Ligand InChI>
InChI=1S/C20H25Cl2N5O6S/c1-9-12(21)13(22)14(24-9)18(29)25-10-4-6-27(8-11(10)33-3)20-26-15(16(34-20)19(30)31)17(28)23-5-7-32-2/h10-11,24H,4-8H2,1-3H3,(H,23,28)(H,25,29)(H,30,31)/t10-,11+/m1/s1

> <Ligand InChI Key>
FMUMTVLUVKJXRB-MNOVXSKESA-N

> <BindingDB MonomerID>
50047200

> <BindingDB Ligand Name>
CHEMBL3314564

> <Target Name Assigned by Curator or DataSource>
DNA Gyrase Subunit B

> <Target Source Organism According to Curator or DataSource>
Staphylococcus aureus

> <Ki (nM)>


> <IC50 (nM)>
<10.0

> <Kd (nM)>


> <EC50 (nM)>


> <kon (M-1-s-1)>


> <koff (s-1)>


> <pH>


> <Temp C>


> <Curation/DataSource>
ChEMBL

> <Article DOI>
10.1021/jm500462x

> <PMID>
24959892

> <PubChem AID>


> <Patent Number>


> <Authors>
Basarab, GS; Hill, PJ; Garner, CE; Hull, K; Green, O; Sherer, BA; Dangel, PB; Manchester, JI; Bist, S; Hauck, S; Zhou, F; Uria-Nickelsen, M; Illingworth, R; Alm, R; Rooney, M; Eakin, AE

> <Institution>
AstraZeneca

> <Link to Ligand in BindingDB>
http://www.bindingdb.org/bind/chemsearch/marvin/MolStructure.jsp?monomerid=50047200

> <Link to Ligand-Target Pair in BindingDB>
http://www.bindingdb.org/jsp/dbsearch/PrimarySearch_ki.jsp?energyterm=kJ/mole&tag=pol&polymerid=2626&target=DNA+Gyrase+Subunit+B&column=ki&startPg=0&Increment=50&submit=Search

> <Link to Ligand-Target Pair in BindingDB>
http://www.bindingdb.org/jsp/dbsearch/PrimarySearch_ki.jsp?energyterm=kJ/mole&tag=r21&monomerid=50047200&enzyme=DNA+Gyrase+Subunit+B&column=ki&startPg=0&Increment=50&submit=Search

> <Ligand HET ID in PDB>


> <PDB ID(s) for Ligand-Target Complex>


> <PubChem CID>
11995989

> <PubChem SID>
103977888

> <ChEBI ID of Ligand>


> <ChEMBL ID of Ligand>
CHEMBL26245

> <DrugBank ID of Ligand>


> <IUPHAR_GRAC ID of Ligand>


> <KEGG ID of Ligand>


> <ZINC ID of Ligand>
ZINC13826959

> <Number of Protein Chains in Target (>1 implies a multichain complex)>
1

> <BindingDB Target Chain Sequence>
MVTALSDVNNTDNYGAGQIQVLEGLEAVRKRPGMYIGSTSERGLHHLVWEIVDNSIDEALAGYANQIEVVIEKDNWIKVTDNGRGIPVDIQEKMGRPAVEVILTVLHAGGKFGGGGYKVSGGLHGVGSSVVNALSQDLEVYVHRNETIYHQAYKKGVPQFDLKEVGTTDKTGTVIRFKADGEIFTETTVYNYETLQQRIRELAFLNKGIQITLRDERDEENVREDSYHYEGGIKSYVELLNENKEPIHDEPIYIHQSKDDIEVEIAIQYNSGYATNLLTYANNIHTYEGGTHEDGFKRALTRVLNSYGLSSKIMKEEKDRLSGEDTREGMTAIISIKHGDPQFEGQTKTKLGNSEVRQVVDKLFSEHFERFLYENPQVARTVVEKGIMAARARVAAKKAREVTRRKSALDVASLPGKLADCSSKSPEECEIFLVEGDSAGGSTKSGRDSRTQAILPLRGKILNVEKARLDRILNNNEIRQMITAFGTGIGGDFDLAKARYHKIVIMTDADVDGAHIRTLLLTFFYRFMRPLIEAGYVYIAQPPLYKLTQGKQKYYVYNDRELDKLKSELNPTPKWSIARYKGLGEMNADQLWETTMNPEHRALLQVKLEDAIEADQTFEMLMGDVVENRRQFIEDNAVYANLDF

> <PDB ID(s) of Target Chain>


> <UniProt (SwissProt) Recommended Name of Target Chain>
DNA gyrase subunit B

> <UniProt (SwissProt) Entry Name of Target Chain>
GYRB_STAAU

> <UniProt (SwissProt) Primary ID of Target Chain>
P0A0K8

> <UniProt (SwissProt) Secondary ID(s) of Target Chain>
P20832

> <UniProt (SwissProt) Alternative ID(s) of Target Chain>


> <UniProt (TrEMBL) Submitted Name of Target Chain>


> <UniProt (TrEMBL) Entry Name of Target Chain>


> <UniProt (TrEMBL) Primary ID of Target Chain>


> <UniProt (TrEMBL) Secondary ID(s) of Target Chain>


> <UniProt (TrEMBL) Alternative ID(s) of Target Chain>


$$$$

  SciTegic02271514412D

 35 37  0  0  0  0            999 V2000
    7.8336   -3.0863    0.0000 C   0  0
    7.0095   -3.1236    0.0000 C   0  0
    6.6339   -3.8534    0.0000 C   0  0  2  0  0  0
    7.0741   -4.5462    0.0000 C   0  0  2  0  0  0
    7.8983   -4.5088    0.0000 C   0  0
    8.2822   -3.7786    0.0000 N   0  0
    5.8098   -3.8909    0.0000 N   0  0
    5.3653   -3.1959    0.0000 C   0  0
    4.5412   -3.2333    0.0000 C   0  0
    5.7450   -2.4634    0.0000 O   0  0
    9.1062   -3.7412    0.0000 C   0  0
    4.0299   -2.5856    0.0000 C   0  0
    3.2576   -2.8758    0.0000 C   0  0
    3.2951   -3.7000    0.0000 C   0  0
    4.0905   -3.9189    0.0000 N   0  0
    9.6190   -4.3840    0.0000 N   0  0
   10.3912   -4.0938    0.0000 C   0  0
   10.3538   -3.2696    0.0000 C   0  0
    9.5584   -3.0507    0.0000 S   0  0
   10.9985   -2.7549    0.0000 C   0  0
   11.7665   -3.0558    0.0000 O   0  0
   10.8750   -1.9392    0.0000 O   0  0
    2.6504   -4.2147    0.0000 C   0  0
    4.2511   -1.7908    0.0000 Cl  0  0
    2.5689   -2.4216    0.0000 Cl  0  0
    6.6934   -5.2781    0.0000 O   0  0
    5.8692   -5.3143    0.0000 C   0  0
   11.0799   -4.5479    0.0000 C   0  0
   11.0310   -5.3714    0.0000 O   0  0
   11.8175   -4.1785    0.0000 N   0  0
   12.5129   -4.6370    0.0000 C   0  0  2  0  0  0
   13.2576   -4.2641    0.0000 C   0  0
   13.9528   -4.7225    0.0000 O   0  0
   14.6976   -4.3496    0.0000 C   0  0
   12.4639   -5.4606    0.0000 C   0  0
  1  2  1  0
  1  6  1  0
  2  3  1  0
  3  4  1  0
  4  5  1  0
  5  6  1  0
  3  7  1  6
  7  8  1  0
  8  9  1  0
  8 10  2  0
  6 11  1  0
  9 12  2  0
 12 13  1  0
 13 14  2  0
 14 15  1  0
 15  9  1  0
 11 16  2  0
 16 17  1  0
 17 18  2  0
 18 19  1  0
 19 11  1  0
 18 20  1  0
 20 21  1  0
 20 22  2  0
 14 23  1  0
 12 24  1  0
 13 25  1  0
  4 26  1  6
 26 27  1  0
 17 28  1  0
 28 29  2  0
 28 30  1  0
 30 31  1  0
 31 32  1  0
 32 33  1  0
 33 34  1  0
 31 35  1  6
M  END
> <From> 
www.bindingDB.org

> <BindingDB Reactant_set_id>
50271361

> <Ligand InChI>
InChI=1S/C21H27Cl2N5O6S/c1-9(8-33-3)24-19(30)16-17(20(31)32)35-21(27-16)28-6-5-11(12(7-28)34-4)26-18(29)15-14(23)13(22)10(2)25-15/h9,11-12,25H,5-8H2,1-4H3,(H,24,30)(H,26,29)(H,31,32)/t9-,11+,12-/m0/s1

> <Ligand InChI Key>
KGZHRAVDXGQUQM-WCQGTBRESA-N

> <BindingDB MonomerID>
50047213

> <BindingDB Ligand Name>
CHEMBL3314565

> <Target Name Assigned by Curator or DataSource>
DNA Gyrase Subunit B

> <Target Source Organism According to Curator or DataSource>
Staphylococcus aureus

> <Ki (nM)>


> <IC50 (nM)>
<10.0

> <Kd (nM)>


> <EC50 (nM)>


> <kon (M-1-s-1)>


> <koff (s-1)>


> <pH>


> <Temp C>


> <Curation/DataSource>
ChEMBL

> <Article DOI>
10.1021/jm500462x

> <PMID>
24959892

> <PubChem AID>


> <Patent Number>


> <Authors>
Basarab, GS; Hill, PJ; Garner, CE; Hull, K; Green, O; Sherer, BA; Dangel, PB; Manchester, JI; Bist, S; Hauck, S; Zhou, F; Uria-Nickelsen, M; Illingworth, R; Alm, R; Rooney, M; Eakin, AE

> <Institution>
AstraZeneca

> <Link to Ligand in BindingDB>
http://www.bindingdb.org/bind/chemsearch/marvin/MolStructure.jsp?monomerid=50047213

> <Link to Ligand-Target Pair in BindingDB>
http://www.bindingdb.org/jsp/dbsearch/PrimarySearch_ki.jsp?energyterm=kJ/mole&tag=pol&polymerid=2626&target=DNA+Gyrase+Subunit+B&column=ki&startPg=0&Increment=50&submit=Search

> <Link to Ligand-Target Pair in BindingDB>
http://www.bindingdb.org/jsp/dbsearch/PrimarySearch_ki.jsp?energyterm=kJ/mole&tag=r21&monomerid=50047213&enzyme=DNA+Gyrase+Subunit+B&column=ki&startPg=0&Increment=50&submit=Search

> <Ligand HET ID in PDB>


> <PDB ID(s) for Ligand-Target Complex>


> <PubChem CID>
11995990

> <PubChem SID>
103977901

> <ChEBI ID of Ligand>


> <ChEMBL ID of Ligand>
CHEMBL280584

> <DrugBank ID of Ligand>


> <IUPHAR_GRAC ID of Ligand>


> <KEGG ID of Ligand>


> <ZINC ID of Ligand>
ZINC13826983

> <Number of Protein Chains in Target (>1 implies a multichain complex)>
1

> <BindingDB Target Chain Sequence>
MVTALSDVNNTDNYGAGQIQVLEGLEAVRKRPGMYIGSTSERGLHHLVWEIVDNSIDEALAGYANQIEVVIEKDNWIKVTDNGRGIPVDIQEKMGRPAVEVILTVLHAGGKFGGGGYKVSGGLHGVGSSVVNALSQDLEVYVHRNETIYHQAYKKGVPQFDLKEVGTTDKTGTVIRFKADGEIFTETTVYNYETLQQRIRELAFLNKGIQITLRDERDEENVREDSYHYEGGIKSYVELLNENKEPIHDEPIYIHQSKDDIEVEIAIQYNSGYATNLLTYANNIHTYEGGTHEDGFKRALTRVLNSYGLSSKIMKEEKDRLSGEDTREGMTAIISIKHGDPQFEGQTKTKLGNSEVRQVVDKLFSEHFERFLYENPQVARTVVEKGIMAARARVAAKKAREVTRRKSALDVASLPGKLADCSSKSPEECEIFLVEGDSAGGSTKSGRDSRTQAILPLRGKILNVEKARLDRILNNNEIRQMITAFGTGIGGDFDLAKARYHKIVIMTDADVDGAHIRTLLLTFFYRFMRPLIEAGYVYIAQPPLYKLTQGKQKYYVYNDRELDKLKSELNPTPKWSIARYKGLGEMNADQLWETTMNPEHRALLQVKLEDAIEADQTFEMLMGDVVENRRQFIEDNAVYANLDF

> <PDB ID(s) of Target Chain>


> <UniProt (SwissProt) Recommended Name of Target Chain>
DNA gyrase subunit B

> <UniProt (SwissProt) Entry Name of Target Chain>
GYRB_STAAU

> <UniProt (SwissProt) Primary ID of Target Chain>
P0A0K8

> <UniProt (SwissProt) Secondary ID(s) of Target Chain>
P20832

> <UniProt (SwissProt) Alternative ID(s) of Target Chain>


> <UniProt (TrEMBL) Submitted Name of Target Chain>


> <UniProt (TrEMBL) Entry Name of Target Chain>


> <UniProt (TrEMBL) Primary ID of Target Chain>


> <UniProt (TrEMBL) Secondary ID(s) of Target Chain>


> <UniProt (TrEMBL) Alternative ID(s) of Target Chain>


$$$$

  Mrv0541 04171609262D          

 27 30  0  0  0  0            999 V2000
   -1.4361    0.4117    0.0000 C   0  0  0  0  0  0  0  0  0  0  0  0
   -1.4361   -0.4117    0.0000 C   0  0  0  0  0  0  0  0  0  0  0  0
   -0.7130   -0.8235    0.0000 C   0  0  0  0  0  0  0  0  0  0  0  0
   -0.7130    0.8235    0.0000 C   0  0  0  0  0  0  0  0  0  0  0  0
    0.0000    0.4117    0.0000 C   0  0  0  0  0  0  0  0  0  0  0  0
    0.0000   -0.4117    0.0000 C   0  0  0  0  0  0  0  0  0  0  0  0
    0.7130   -0.8235    0.0000 N   0  0  0  0  0  0  0  0  0  0  0  0
    1.4261   -0.4117    0.0000 C   0  0  0  0  0  0  0  0  0  0  0  0
    1.4261    0.4117    0.0000 C   0  0  0  0  0  0  0  0  0  0  0  0
    0.7130    0.8235    0.0000 C   0  0  0  0  0  0  0  0  0  0  0  0
    0.7130    1.6489    0.0000 N   0  0  0  0  0  0  0  0  0  0  0  0
   -0.0008    2.0627    0.0000 C   0  0  0  0  0  0  0  0  0  0  0  0
    0.0006    2.8877    0.0000 C   0  0  0  0  0  0  0  0  0  0  0  0
    0.7158    3.2990    0.0000 C   0  0  0  0  0  0  0  0  0  0  0  0
    1.4296    2.8853    0.0000 C   0  0  0  0  0  0  0  0  0  0  0  0
    1.4282    2.0603    0.0000 C   0  0  0  0  0  0  0  0  0  0  0  0
    0.7188    4.1245    0.0000 N   0  0  0  0  0  0  0  0  0  0  0  0
    1.4350    4.5350    0.0000 C   0  0  0  0  0  0  0  0  0  0  0  0
    2.0054    4.2031    0.0000 S   0  0  0  0  0  0  0  0  0  0  0  0
    1.4380    5.3604    0.0000 N   0  0  0  0  0  0  0  0  0  0  0  0
    2.1541    5.7709    0.0000 C   0  0  0  0  0  0  0  0  0  0  0  0
    2.1584    6.5960    0.0000 C   0  0  0  0  0  0  0  0  0  0  0  0
    2.8750    7.0048    0.0000 C   0  0  0  0  0  0  0  0  0  0  0  0
    3.5873    6.5887    0.0000 C   0  0  0  0  0  0  0  0  0  0  0  0
    3.5831    5.7637    0.0000 C   0  0  0  0  0  0  0  0  0  0  0  0
    2.8666    5.3548    0.0000 C   0  0  0  0  0  0  0  0  0  0  0  0
    1.9977   -0.7417    0.0000 C   0  0  0  0  0  0  0  0  0  0  0  0
  1  2  4  0  0  0  0
  2  3  4  0  0  0  0
  3  6  4  0  0  0  0
  5  4  4  0  0  0  0
  4  1  4  0  0  0  0
  5  6  4  0  0  0  0
  6  7  4  0  0  0  0
  7  8  4  0  0  0  0
  8  9  4  0  0  0  0
  9 10  4  0  0  0  0
 10  5  4  0  0  0  0
 11 12  1  0  0  0  0
 11 16  1  0  0  0  0
 12 13  1  0  0  0  0
 13 14  1  0  0  0  0
 14 15  1  0  0  0  0
 15 16  1  0  0  0  0
 10 11  1  0  0  0  0
 14 17  1  0  0  0  0
 17 18  1  0  0  0  0
 18 19  2  0  0  0  0
 18 20  1  0  0  0  0
 20 21  1  0  0  0  0
 21 22  4  0  0  0  0
 22 23  4  0  0  0  0
 23 24  4  0  0  0  0
 24 25  4  0  0  0  0
 25 26  4  0  0  0  0
 26 21  4  0  0  0  0
  8 27  1  0  0  0  0
M  END
> <From> 
www.bindingDB.org

> <BindingDB Reactant_set_id>
50303843

> <Ligand InChI>
InChI=1S/C22H24N4S/c1-16-15-21(19-9-5-6-10-20(19)23-16)26-13-11-18(12-14-26)25-22(27)24-17-7-3-2-4-8-17/h2-10,15,18H,11-14H2,1H3,(H2,24,25,27)

> <Ligand InChI Key>
OKFZVARNDOVISV-UHFFFAOYSA-N

> <BindingDB MonomerID>
50067145

> <BindingDB Ligand Name>
CHEMBL3403266

> <Target Name Assigned by Curator or DataSource>
DNA gyrase subunit B

> <Target Source Organism According to Curator or DataSource>


> <Ki (nM)>


> <IC50 (nM)>
 12700

> <Kd (nM)>


> <EC50 (nM)>


> <kon (M-1-s-1)>


> <koff (s-1)>


> <pH>


> <Temp C>


> <Curation/DataSource>
ChEMBL

> <Article DOI>
10.1016/j.bmc.2015.03.004

> <PMID>
25801151

> <PubChem AID>


> <Patent Number>


> <Authors>
Medapi, B; Renuka, J; Saxena, S; Sridevi, JP; Medishetti, R; Kulkarni, P; Yogeeswari, P; Sriram, D

> <Institution>
Birla Institute of Technology&amp; Science-Pilani

> <Link to Ligand in BindingDB>
http://www.bindingdb.org/bind/chemsearch/marvin/MolStructure.jsp?monomerid=50067145

> <Link to Ligand-Target Pair in BindingDB>
http://www.bindingdb.org/jsp/dbsearch/PrimarySearch_ki.jsp?energyterm=kJ/mole&tag=pol&polymerid=50006452&target=DNA+gyrase+subunit+B&column=ki&startPg=0&Increment=50&submit=Search

> <Link to Ligand-Target Pair in BindingDB>
http://www.bindingdb.org/jsp/dbsearch/PrimarySearch_ki.jsp?energyterm=kJ/mole&tag=r21&monomerid=50067145&enzyme=DNA+gyrase+subunit+B&column=ki&startPg=0&Increment=50&submit=Search

> <Ligand HET ID in PDB>


> <PDB ID(s) for Ligand-Target Complex>


> <PubChem CID>
118729682

> <PubChem SID>
313071776

> <ChEBI ID of Ligand>


> <ChEMBL ID of Ligand>


> <DrugBank ID of Ligand>


> <IUPHAR_GRAC ID of Ligand>


> <KEGG ID of Ligand>


> <ZINC ID of Ligand>


> <Number of Protein Chains in Target (>1 implies a multichain complex)>
1

> <BindingDB Target Chain Sequence>
MAAQKNNAPKEYGADSITILEGLEAVRKRPGMYIGSTGERGLHHLIWEVVDNAVDEAMAGFATRVDVKIHADGSVEVRDDGRGIPVEMHATGMPTIDVVMTQLHAGGKFDGETYAVSGGLHGVGVSVVNALSTRLEATVLRDGYEWFQYYDRSVPGKLKQGGETKETGTTIRFWADPEIFETTDYNFETVARRLQEMAFLNKGLTIELTDERVTAEEVVDDVVKDTAEAPKTADEKAAEATGPSKVKHRVFHYPGGLVDYVKHINRTKTPIQQSIIDFDGKGPGHEVEIAMQWNAGYSESVHTFANTINTHEGGTHEEGFRAALTSVVNRYAKDKKLLKDKDPNLTGDDIREGLAAVISVKVAEPQFEGQTKTKLGNTEVKSFVQKICNEQLQHWFEANPAEAKTVVNKAVSSAQARIAARKARELVRRKSATDIGGLPGKLADCRSTDPSKSELYVVEGDSAGGSAKSGRDSMFQAILPLRGKIINVEKARIDRVLKNTEVQSIITALGTGIHDEFDISKLRYHKIVLMADADVDGQHISTLLLTLLFRFMKPLVENGHIFLAQPPLYKLKWQRSEPEFAYSDRERDGLLEAGRAAGKKINVDDGIQRYKGLGEMDAKELWETTMDPSVRVLRQVTLDDAAAADELFSILMGEDVEARRSFITRNAKDVRFLDV

> <PDB ID(s) of Target Chain>
4BAE

> <UniProt (SwissProt) Recommended Name of Target Chain>
DNA gyrase subunit B

> <UniProt (SwissProt) Entry Name of Target Chain>
GYRB_MYCSM

> <UniProt (SwissProt) Primary ID of Target Chain>
P0C559

> <UniProt (SwissProt) Secondary ID(s) of Target Chain>
P48355,Q59555

> <UniProt (SwissProt) Alternative ID(s) of Target Chain>


> <UniProt (TrEMBL) Submitted Name of Target Chain>


> <UniProt (TrEMBL) Entry Name of Target Chain>


> <UniProt (TrEMBL) Primary ID of Target Chain>


> <UniProt (TrEMBL) Secondary ID(s) of Target Chain>


> <UniProt (TrEMBL) Alternative ID(s) of Target Chain>


$$$$

  Mrv0541 04171609262D          

 27 29  0  0  0  0            999 V2000
    0.7145   -0.4125    0.0000 C   0  0  0  0  0  0  0  0  0  0  0  0
    0.7145    0.4125    0.0000 C   0  0  0  0  0  0  0  0  0  0  0  0
    0.0000    0.8250    0.0000 C   0  0  0  0  0  0  0  0  0  0  0  0
   -0.7145    0.4125    0.0000 C   0  0  0  0  0  0  0  0  0  0  0  0
   -0.7145   -0.4125    0.0000 C   0  0  0  0  0  0  0  0  0  0  0  0
    0.0000   -0.8250    0.0000 C   0  0  0  0  0  0  0  0  0  0  0  0
   -1.4293   -0.8252    0.0000 C   0  0  0  0  0  0  0  0  0  0  0  0
   -2.1731   -0.4848    0.0000 S   0  0  0  0  0  0  0  0  0  0  0  0
   -2.7242   -1.0988    0.0000 C   0  0  0  0  0  0  0  0  0  0  0  0
   -2.3106   -1.8127    0.0000 C   0  0  0  0  0  0  0  0  0  0  0  0
   -1.5039   -1.6398    0.0000 C   0  0  0  0  0  0  0  0  0  0  0  0
   -2.6429   -2.5667    0.0000 C   0  0  0  0  0  0  0  0  0  0  0  0
   -2.2534   -3.0994    0.0000 O   0  0  0  0  0  0  0  0  0  0  0  0
   -3.2991   -2.6378    0.0000 N   0  0  0  0  0  0  0  0  0  0  0  0
   -3.5437   -1.0123    0.0000 N   0  0  0  0  0  0  0  0  0  0  0  0
   -3.8796   -0.2582    0.0000 C   0  0  0  0  0  0  0  0  0  0  0  0
   -4.7005   -0.1715    0.0000 N   0  0  0  0  0  0  0  0  0  0  0  0
   -3.4915    0.2757    0.0000 O   0  0  0  0  0  0  0  0  0  0  0  0
   -5.0363    0.5825    0.0000 C   0  0  0  0  0  0  0  0  0  0  0  0
   -5.8566    0.6703    0.0000 C   0  0  0  0  0  0  0  0  0  0  0  0
   -6.1908    1.4246    0.0000 C   0  0  0  0  0  0  0  0  0  0  0  0
   -5.7046    2.0912    0.0000 C   0  0  0  0  0  0  0  0  0  0  0  0
   -4.8843    2.0034    0.0000 C   0  0  0  0  0  0  0  0  0  0  0  0
   -4.5501    1.2491    0.0000 C   0  0  0  0  0  0  0  0  0  0  0  0
   -6.0374    2.8466    0.0000 N   0  3  0  0  0  0  0  0  0  0  0  0
   -5.6477    3.3793    0.0000 O   0  0  0  0  0  0  0  0  0  0  0  0
   -6.6935    2.9179    0.0000 O   0  5  0  0  0  0  0  0  0  0  0  0
  1  2  4  0  0  0  0
  2  3  4  0  0  0  0
  3  4  4  0  0  0  0
  4  5  4  0  0  0  0
  5  6  4  0  0  0  0
  6  1  4  0  0  0  0
  7  8  4  0  0  0  0
  8  9  4  0  0  0  0
  9 10  4  0  0  0  0
 10 11  4  0  0  0  0
 11  7  4  0  0  0  0
  5  7  1  0  0  0  0
 10 12  1  0  0  0  0
 12 13  2  0  0  0  0
 12 14  1  0  0  0  0
  9 15  1  0  0  0  0
 15 16  1  0  0  0  0
 16 17  1  0  0  0  0
 16 18  2  0  0  0  0
 17 19  1  0  0  0  0
 19 20  4  0  0  0  0
 20 21  4  0  0  0  0
 21 22  4  0  0  0  0
 22 23  4  0  0  0  0
 23 24  4  0  0  0  0
 24 19  4  0  0  0  0
 25 26  2  0  0  0  0
 25 27  1  0  0  0  0
 22 25  1  0  0  0  0
M  CHG  2  25   1  27  -1
M  END
> <From> 
www.bindingDB.org

> <BindingDB Reactant_set_id>
50302318

> <Ligand InChI>
InChI=1S/C18H14N4O4S/c19-16(23)14-10-15(11-4-2-1-3-5-11)27-17(14)21-18(24)20-12-6-8-13(9-7-12)22(25)26/h1-10H,(H2,19,23)(H2,20,21,24)

> <Ligand InChI Key>
ZUTAXLGGVHEVKO-UHFFFAOYSA-N

> <BindingDB MonomerID>
50066083

> <BindingDB Ligand Name>
CHEMBL3402932

> <Target Name Assigned by Curator or DataSource>
DNA gyrase subunit B

> <Target Source Organism According to Curator or DataSource>


> <Ki (nM)>


> <IC50 (nM)>
 12830

> <Kd (nM)>


> <EC50 (nM)>


> <kon (M-1-s-1)>


> <koff (s-1)>


> <pH>


> <Temp C>
25.00

> <Curation/DataSource>
ChEMBL

> <Article DOI>
10.1016/j.bmc.2015.02.032

> <PMID>
25766629

> <PubChem AID>


> <Patent Number>


> <Authors>
Saxena, S; Samala, G; Renuka, J; Sridevi, JP; Yogeeswari, P; Sriram, D

> <Institution>
Birla Institute of Technology&amp; Science-Pilani

> <Link to Ligand in BindingDB>
http://www.bindingdb.org/bind/chemsearch/marvin/MolStructure.jsp?monomerid=50066083

> <Link to Ligand-Target Pair in BindingDB>
http://www.bindingdb.org/jsp/dbsearch/PrimarySearch_ki.jsp?energyterm=kJ/mole&tag=pol&polymerid=50006452&target=DNA+gyrase+subunit+B&column=ki&startPg=0&Increment=50&submit=Search

> <Link to Ligand-Target Pair in BindingDB>
http://www.bindingdb.org/jsp/dbsearch/PrimarySearch_ki.jsp?energyterm=kJ/mole&tag=r21&monomerid=50066083&enzyme=DNA+gyrase+subunit+B&column=ki&startPg=0&Increment=50&submit=Search

> <Ligand HET ID in PDB>


> <PDB ID(s) for Ligand-Target Complex>


> <PubChem CID>
118729459

> <PubChem SID>
313071610

> <ChEBI ID of Ligand>


> <ChEMBL ID of Ligand>


> <DrugBank ID of Ligand>


> <IUPHAR_GRAC ID of Ligand>


> <KEGG ID of Ligand>


> <ZINC ID of Ligand>


> <Number of Protein Chains in Target (>1 implies a multichain complex)>
1

> <BindingDB Target Chain Sequence>
MAAQKNNAPKEYGADSITILEGLEAVRKRPGMYIGSTGERGLHHLIWEVVDNAVDEAMAGFATRVDVKIHADGSVEVRDDGRGIPVEMHATGMPTIDVVMTQLHAGGKFDGETYAVSGGLHGVGVSVVNALSTRLEATVLRDGYEWFQYYDRSVPGKLKQGGETKETGTTIRFWADPEIFETTDYNFETVARRLQEMAFLNKGLTIELTDERVTAEEVVDDVVKDTAEAPKTADEKAAEATGPSKVKHRVFHYPGGLVDYVKHINRTKTPIQQSIIDFDGKGPGHEVEIAMQWNAGYSESVHTFANTINTHEGGTHEEGFRAALTSVVNRYAKDKKLLKDKDPNLTGDDIREGLAAVISVKVAEPQFEGQTKTKLGNTEVKSFVQKICNEQLQHWFEANPAEAKTVVNKAVSSAQARIAARKARELVRRKSATDIGGLPGKLADCRSTDPSKSELYVVEGDSAGGSAKSGRDSMFQAILPLRGKIINVEKARIDRVLKNTEVQSIITALGTGIHDEFDISKLRYHKIVLMADADVDGQHISTLLLTLLFRFMKPLVENGHIFLAQPPLYKLKWQRSEPEFAYSDRERDGLLEAGRAAGKKINVDDGIQRYKGLGEMDAKELWETTMDPSVRVLRQVTLDDAAAADELFSILMGEDVEARRSFITRNAKDVRFLDV

> <PDB ID(s) of Target Chain>
4BAE

> <UniProt (SwissProt) Recommended Name of Target Chain>
DNA gyrase subunit B

> <UniProt (SwissProt) Entry Name of Target Chain>
GYRB_MYCSM

> <UniProt (SwissProt) Primary ID of Target Chain>
P0C559

> <UniProt (SwissProt) Secondary ID(s) of Target Chain>
P48355,Q59555

> <UniProt (SwissProt) Alternative ID(s) of Target Chain>


> <UniProt (TrEMBL) Submitted Name of Target Chain>


> <UniProt (TrEMBL) Entry Name of Target Chain>


> <UniProt (TrEMBL) Primary ID of Target Chain>


> <UniProt (TrEMBL) Secondary ID(s) of Target Chain>


> <UniProt (TrEMBL) Alternative ID(s) of Target Chain>


$$$$

  Mrv0541 11171616332D          

 34 39  0  0  0  0            999 V2000
    4.4966   -7.1271    0.0000 C   0  0  0  0  0  0  0  0  0  0  0  0
    5.0931   -6.4912    0.0000 C   0  0  0  0  0  0  0  0  0  0  0  0
    5.2450   -6.9178    0.0000 C   0  0  0  0  0  0  0  0  0  0  0  0
    5.7548   -6.7356    0.0000 C   0  0  0  0  0  0  0  0  0  0  0  0
    5.9450   -7.1956    0.0000 C   0  0  0  0  0  0  0  0  0  0  0  0
    6.4504   -6.5630    0.0000 C   0  0  0  0  0  0  0  0  0  0  0  0
    5.2424   -6.1249    0.0000 C   0  0  0  0  0  0  0  0  0  0  0  0
    5.7601   -5.5129    0.0000 C   0  0  0  0  0  0  0  0  0  0  0  0
    5.0890   -5.7514    0.0000 C   0  0  0  0  0  0  0  0  0  0  0  0
    6.4558   -5.8013    0.0000 C   0  0  0  0  0  0  0  0  0  0  0  0
   11.0373   -8.4890    0.0000 O   0  0  0  0  0  0  0  0  0  0  0  0
   11.1213   -7.6677    0.0000 C   0  0  0  0  0  0  0  0  0  0  0  0
   10.3660   -7.3324    0.0000 C   0  0  0  0  0  0  0  0  0  0  0  0
    9.8138   -7.9453    0.0000 C   0  0  0  0  0  0  0  0  0  0  0  0
   10.2286   -8.6602    0.0000 C   0  0  0  0  0  0  0  0  0  0  0  0
    8.9883   -7.9453    0.0000 C   0  0  0  0  0  0  0  0  0  0  0  0
    8.5776   -8.6602    0.0000 C   0  0  0  0  0  0  0  0  0  0  0  0
    8.9883   -9.3752    0.0000 C   0  0  0  0  0  0  0  0  0  0  0  0
    9.8138   -9.3752    0.0000 C   0  0  0  0  0  0  0  0  0  0  0  0
   11.8363   -7.2531    0.0000 C   0  0  0  0  0  0  0  0  0  0  0  0
   12.5513   -7.6677    0.0000 O   0  0  0  0  0  0  0  0  0  0  0  0
   11.8363   -6.4276    0.0000 O   0  0  0  0  0  0  0  0  0  0  0  0
    7.7521   -8.6602    0.0000 N   0  0  0  0  0  0  0  0  0  0  0  0
    7.3373   -9.3752    0.0000 C   0  0  0  0  0  0  0  0  0  0  0  0
    6.5118   -9.3752    0.0000 C   0  0  0  0  0  0  0  0  0  0  0  0
    6.1011   -8.6602    0.0000 N   0  0  0  0  0  0  0  0  0  0  0  0
    6.5118   -7.9453    0.0000 C   0  0  0  0  0  0  0  0  0  0  0  0
    7.3373   -7.9453    0.0000 C   0  0  0  0  0  0  0  0  0  0  0  0
    5.2756   -8.6602    0.0000 C   0  0  0  0  0  0  0  0  0  0  0  0
    4.8608   -9.3752    0.0000 O   0  0  0  0  0  0  0  0  0  0  0  0
    4.8608   -7.9453    0.0000 C   0  0  0  0  0  0  0  0  0  0  0  0
    5.2756   -7.2303    0.0000 C   0  0  0  0  0  0  0  0  0  0  0  0
   12.5513   -6.0167    0.0000 C   0  0  0  0  0  0  0  0  0  0  0  0
   12.5513   -5.1912    0.0000 C   0  0  0  0  0  0  0  0  0  0  0  0
  1  2  1  0  0  0  0
  1  3  1  0  0  0  0
  2  4  1  0  0  0  0
  3  5  1  0  0  0  0
  4  6  1  0  0  0  0
  5  6  1  0  0  0  0
  7  8  1  0  0  0  0
  3  7  1  0  0  0  0
  2  9  1  0  0  0  0
  6 10  1  0  0  0  0
 10  8  1  0  0  0  0
  8  9  1  0  0  0  0
 11 12  4  0  0  0  0
 12 13  4  0  0  0  0
 13 14  4  0  0  0  0
 14 15  4  0  0  0  0
 11 15  4  0  0  0  0
 16 17  4  0  0  0  0
 17 18  4  0  0  0  0
 18 19  4  0  0  0  0
 15 19  4  0  0  0  0
 14 16  4  0  0  0  0
 20 21  2  0  0  0  0
 20 22  1  0  0  0  0
 12 20  1  0  0  0  0
 23 24  1  0  0  0  0
 24 25  1  0  0  0  0
 25 26  1  0  0  0  0
 26 27  1  0  0  0  0
 27 28  1  0  0  0  0
 23 28  1  0  0  0  0
 29 30  2  0  0  0  0
 29 31  1  0  0  0  0
 32  3  1  0  0  0  0
 31 32  1  0  0  0  0
 26 29  1  0  0  0  0
 17 23  1  0  0  0  0
 33 34  1  0  0  0  0
 22 33  1  0  0  0  0
M  END
> <From> 
www.bindingDB.org

> <BindingDB Reactant_set_id>
50369938

> <Ligand InChI>
InChI=1S/C28H36N2O4/c1-2-33-27(32)25-15-22-14-23(3-4-24(22)34-25)29-7-9-30(10-8-29)26(31)5-6-28-16-19-11-20(17-28)13-21(12-19)18-28/h3-4,14-15,19-21H,2,5-13,16-18H2,1H3

> <Ligand InChI Key>
CBSFWGHPMIGRSF-UHFFFAOYSA-N

> <BindingDB MonomerID>
50100650

> <BindingDB Ligand Name>
CHEMBL3323165

> <Target Name Assigned by Curator or DataSource>
DNA gyrase subunit B

> <Target Source Organism According to Curator or DataSource>


> <Ki (nM)>


> <IC50 (nM)>
 12870

> <Kd (nM)>


> <EC50 (nM)>


> <kon (M-1-s-1)>


> <koff (s-1)>


> <pH>


> <Temp C>


> <Curation/DataSource>
ChEMBL

> <Article DOI>
10.1016/j.bmc.2014.06.041

> <PMID>
25129171

> <PubChem AID>


> <Patent Number>


> <Authors>
Renuka, J; Reddy, KI; Srihari, K; Jeankumar, VU; Shravan, M; Sridevi, JP; Yogeeswari, P; Babu, KS; Sriram, D

> <Institution>
Institute of Technology&amp; Science-Pilani

> <Link to Ligand in BindingDB>
http://www.bindingdb.org/bind/chemsearch/marvin/MolStructure.jsp?monomerid=50100650

> <Link to Ligand-Target Pair in BindingDB>
http://www.bindingdb.org/jsp/dbsearch/PrimarySearch_ki.jsp?energyterm=kJ/mole&tag=pol&polymerid=50006452&target=DNA+gyrase+subunit+B&column=ki&startPg=0&Increment=50&submit=Search

> <Link to Ligand-Target Pair in BindingDB>
http://www.bindingdb.org/jsp/dbsearch/PrimarySearch_ki.jsp?energyterm=kJ/mole&tag=r21&monomerid=50100650&enzyme=DNA+gyrase+subunit+B&column=ki&startPg=0&Increment=50&submit=Search

> <Ligand HET ID in PDB>


> <PDB ID(s) for Ligand-Target Complex>


> <PubChem CID>
118710577

> <PubChem SID>
318490759

> <ChEBI ID of Ligand>


> <ChEMBL ID of Ligand>


> <DrugBank ID of Ligand>


> <IUPHAR_GRAC ID of Ligand>


> <KEGG ID of Ligand>


> <ZINC ID of Ligand>


> <Number of Protein Chains in Target (>1 implies a multichain complex)>
1

> <BindingDB Target Chain Sequence>
MAAQKNNAPKEYGADSITILEGLEAVRKRPGMYIGSTGERGLHHLIWEVVDNAVDEAMAGFATRVDVKIHADGSVEVRDDGRGIPVEMHATGMPTIDVVMTQLHAGGKFDGETYAVSGGLHGVGVSVVNALSTRLEATVLRDGYEWFQYYDRSVPGKLKQGGETKETGTTIRFWADPEIFETTDYNFETVARRLQEMAFLNKGLTIELTDERVTAEEVVDDVVKDTAEAPKTADEKAAEATGPSKVKHRVFHYPGGLVDYVKHINRTKTPIQQSIIDFDGKGPGHEVEIAMQWNAGYSESVHTFANTINTHEGGTHEEGFRAALTSVVNRYAKDKKLLKDKDPNLTGDDIREGLAAVISVKVAEPQFEGQTKTKLGNTEVKSFVQKICNEQLQHWFEANPAEAKTVVNKAVSSAQARIAARKARELVRRKSATDIGGLPGKLADCRSTDPSKSELYVVEGDSAGGSAKSGRDSMFQAILPLRGKIINVEKARIDRVLKNTEVQSIITALGTGIHDEFDISKLRYHKIVLMADADVDGQHISTLLLTLLFRFMKPLVENGHIFLAQPPLYKLKWQRSEPEFAYSDRERDGLLEAGRAAGKKINVDDGIQRYKGLGEMDAKELWETTMDPSVRVLRQVTLDDAAAADELFSILMGEDVEARRSFITRNAKDVRFLDV

> <PDB ID(s) of Target Chain>
4BAE

> <UniProt (SwissProt) Recommended Name of Target Chain>
DNA gyrase subunit B

> <UniProt (SwissProt) Entry Name of Target Chain>
GYRB_MYCSM

> <UniProt (SwissProt) Primary ID of Target Chain>
P0C559

> <UniProt (SwissProt) Secondary ID(s) of Target Chain>
P48355,Q59555

> <UniProt (SwissProt) Alternative ID(s) of Target Chain>


> <UniProt (TrEMBL) Submitted Name of Target Chain>


> <UniProt (TrEMBL) Entry Name of Target Chain>


> <UniProt (TrEMBL) Primary ID of Target Chain>


> <UniProt (TrEMBL) Secondary ID(s) of Target Chain>


> <UniProt (TrEMBL) Alternative ID(s) of Target Chain>


$$$$

  Mrv0541 03201611132D          

 32 35  0  0  0  0            999 V2000
   26.5339  -14.6158    0.0000 O   0  0  0  0  0  0  0  0  0  0  0  0
   27.0186  -13.9462    0.0000 C   0  0  0  0  0  0  0  0  0  0  0  0
   26.5339  -13.2808    0.0000 C   0  0  0  0  0  0  0  0  0  0  0  0
   25.7534  -13.5337    0.0000 C   0  0  0  0  0  0  0  0  0  0  0  0
   25.7534  -14.3587    0.0000 C   0  0  0  0  0  0  0  0  0  0  0  0
   25.0375  -13.1212    0.0000 C   0  0  0  0  0  0  0  0  0  0  0  0
   24.3217  -13.5337    0.0000 C   0  0  0  0  0  0  0  0  0  0  0  0
   24.3217  -14.3587    0.0000 C   0  0  0  0  0  0  0  0  0  0  0  0
   25.0375  -14.7712    0.0000 C   0  0  0  0  0  0  0  0  0  0  0  0
   27.8436  -13.9462    0.0000 C   0  0  0  0  0  0  0  0  0  0  0  0
   28.2561  -14.6620    0.0000 O   0  0  0  0  0  0  0  0  0  0  0  0
   28.2561  -13.2303    0.0000 O   0  0  0  0  0  0  0  0  0  0  0  0
   23.6059  -13.1212    0.0000 N   0  0  0  0  0  0  0  0  0  0  0  0
   22.8942  -13.5337    0.0000 C   0  0  0  0  0  0  0  0  0  0  0  0
   22.1783  -13.1212    0.0000 C   0  0  0  0  0  0  0  0  0  0  0  0
   22.1783  -12.2962    0.0000 N   0  0  0  0  0  0  0  0  0  0  0  0
   22.8942  -11.8837    0.0000 C   0  0  0  0  0  0  0  0  0  0  0  0
   23.6059  -12.2962    0.0000 C   0  0  0  0  0  0  0  0  0  0  0  0
   21.4624  -11.8837    0.0000 C   0  0  0  0  0  0  0  0  0  0  0  0
   20.7508  -12.2962    0.0000 N   0  0  0  0  0  0  0  0  0  0  0  0
   21.4624  -11.0587    0.0000 S   0  0  0  0  0  0  0  0  0  0  0  0
   20.0349  -11.8837    0.0000 C   0  0  0  0  0  0  0  0  0  0  0  0
   19.3191  -12.2962    0.0000 C   0  0  0  0  0  0  0  0  0  0  0  0
   18.6073  -11.8837    0.0000 C   0  0  0  0  0  0  0  0  0  0  0  0
   18.6073  -11.0587    0.0000 C   0  0  0  0  0  0  0  0  0  0  0  0
   19.3191  -10.6462    0.0000 C   0  0  0  0  0  0  0  0  0  0  0  0
   20.0349  -11.0587    0.0000 C   0  0  0  0  0  0  0  0  0  0  0  0
   17.8915  -10.6462    0.0000 N   0  3  0  0  0  0  0  0  0  0  0  0
   17.8915   -9.8212    0.0000 O   0  0  0  0  0  0  0  0  0  0  0  0
   17.1756  -11.0587    0.0000 O   0  5  0  0  0  0  0  0  0  0  0  0
   29.0810  -13.2303    0.0000 C   0  0  0  0  0  0  0  0  0  0  0  0
   29.4935  -12.5186    0.0000 C   0  0  0  0  0  0  0  0  0  0  0  0
  1  2  4  0  0  0  0
  2  3  4  0  0  0  0
  3  4  4  0  0  0  0
  4  5  4  0  0  0  0
  1  5  4  0  0  0  0
  6  7  4  0  0  0  0
  7  8  4  0  0  0  0
  8  9  4  0  0  0  0
  5  9  4  0  0  0  0
  4  6  4  0  0  0  0
 10 11  2  0  0  0  0
 10 12  1  0  0  0  0
  2 10  1  0  0  0  0
 13 14  1  0  0  0  0
 14 15  1  0  0  0  0
 15 16  1  0  0  0  0
 16 17  1  0  0  0  0
 17 18  1  0  0  0  0
 13 18  1  0  0  0  0
 19 20  1  0  0  0  0
 19 21  2  0  0  0  0
 22 23  4  0  0  0  0
 23 24  4  0  0  0  0
 24 25  4  0  0  0  0
 25 26  4  0  0  0  0
 26 27  4  0  0  0  0
 22 27  4  0  0  0  0
 28 29  2  0  0  0  0
 28 30  1  0  0  0  0
 25 28  1  0  0  0  0
 20 22  1  0  0  0  0
 16 19  1  0  0  0  0
  7 13  1  0  0  0  0
 31 32  1  0  0  0  0
 12 31  1  0  0  0  0
M  CHG  2  28   1  30  -1
M  END
> <From> 
www.bindingDB.org

> <BindingDB Reactant_set_id>
50254201

> <Ligand InChI>
InChI=1S/C22H22N4O5S/c1-2-30-21(27)20-14-15-13-18(7-8-19(15)31-20)24-9-11-25(12-10-24)22(32)23-16-3-5-17(6-4-16)26(28)29/h3-8,13-14H,2,9-12H2,1H3,(H,23,32)

> <Ligand InChI Key>
SBNWUJWCMOPMKQ-UHFFFAOYSA-N

> <BindingDB MonomerID>
50037089

> <BindingDB Ligand Name>
CHEMBL3355792

> <Target Name Assigned by Curator or DataSource>
DNA gyrase subunit B

> <Target Source Organism According to Curator or DataSource>


> <Ki (nM)>


> <IC50 (nM)>
 12910

> <Kd (nM)>


> <EC50 (nM)>


> <kon (M-1-s-1)>


> <koff (s-1)>


> <pH>


> <Temp C>


> <Curation/DataSource>
ChEMBL

> <Article DOI>
10.1016/j.bmc.2014.10.016

> <PMID>
25456076

> <PubChem AID>


> <Patent Number>


> <Authors>
Reddy, KI; Srihari, K; Renuka, J; Sree, KS; Chuppala, A; Jeankumar, VU; Sridevi, JP; Babu, KS; Yogeeswari, P; Sriram, D

> <Institution>
TBA

> <Link to Ligand in BindingDB>
http://www.bindingdb.org/bind/chemsearch/marvin/MolStructure.jsp?monomerid=50037089

> <Link to Ligand-Target Pair in BindingDB>
http://www.bindingdb.org/jsp/dbsearch/PrimarySearch_ki.jsp?energyterm=kJ/mole&tag=pol&polymerid=50006452&target=DNA+gyrase+subunit+B&column=ki&startPg=0&Increment=50&submit=Search

> <Link to Ligand-Target Pair in BindingDB>
http://www.bindingdb.org/jsp/dbsearch/PrimarySearch_ki.jsp?energyterm=kJ/mole&tag=r21&monomerid=50037089&enzyme=DNA+gyrase+subunit+B&column=ki&startPg=0&Increment=50&submit=Search

> <Ligand HET ID in PDB>


> <PDB ID(s) for Ligand-Target Complex>


> <PubChem CID>
118721092

> <PubChem SID>
313067063

> <ChEBI ID of Ligand>


> <ChEMBL ID of Ligand>


> <DrugBank ID of Ligand>


> <IUPHAR_GRAC ID of Ligand>


> <KEGG ID of Ligand>


> <ZINC ID of Ligand>


> <Number of Protein Chains in Target (>1 implies a multichain complex)>
1

> <BindingDB Target Chain Sequence>
MAAQKNNAPKEYGADSITILEGLEAVRKRPGMYIGSTGERGLHHLIWEVVDNAVDEAMAGFATRVDVKIHADGSVEVRDDGRGIPVEMHATGMPTIDVVMTQLHAGGKFDGETYAVSGGLHGVGVSVVNALSTRLEATVLRDGYEWFQYYDRSVPGKLKQGGETKETGTTIRFWADPEIFETTDYNFETVARRLQEMAFLNKGLTIELTDERVTAEEVVDDVVKDTAEAPKTADEKAAEATGPSKVKHRVFHYPGGLVDYVKHINRTKTPIQQSIIDFDGKGPGHEVEIAMQWNAGYSESVHTFANTINTHEGGTHEEGFRAALTSVVNRYAKDKKLLKDKDPNLTGDDIREGLAAVISVKVAEPQFEGQTKTKLGNTEVKSFVQKICNEQLQHWFEANPAEAKTVVNKAVSSAQARIAARKARELVRRKSATDIGGLPGKLADCRSTDPSKSELYVVEGDSAGGSAKSGRDSMFQAILPLRGKIINVEKARIDRVLKNTEVQSIITALGTGIHDEFDISKLRYHKIVLMADADVDGQHISTLLLTLLFRFMKPLVENGHIFLAQPPLYKLKWQRSEPEFAYSDRERDGLLEAGRAAGKKINVDDGIQRYKGLGEMDAKELWETTMDPSVRVLRQVTLDDAAAADELFSILMGEDVEARRSFITRNAKDVRFLDV

> <PDB ID(s) of Target Chain>
4BAE

> <UniProt (SwissProt) Recommended Name of Target Chain>
DNA gyrase subunit B

> <UniProt (SwissProt) Entry Name of Target Chain>
GYRB_MYCSM

> <UniProt (SwissProt) Primary ID of Target Chain>
P0C559

> <UniProt (SwissProt) Secondary ID(s) of Target Chain>
P48355,Q59555

> <UniProt (SwissProt) Alternative ID(s) of Target Chain>


> <UniProt (TrEMBL) Submitted Name of Target Chain>


> <UniProt (TrEMBL) Entry Name of Target Chain>


> <UniProt (TrEMBL) Primary ID of Target Chain>


> <UniProt (TrEMBL) Secondary ID(s) of Target Chain>


> <UniProt (TrEMBL) Alternative ID(s) of Target Chain>


$$$$

  SciTegic09081514182D

 28 31  0  0  0  0            999 V2000
   -2.6111    0.7486    0.0000 C   0  0
   -2.6111   -0.7486    0.0000 C   0  0
   -1.2964   -1.4973    0.0000 C   0  0
   -1.2964    1.4973    0.0000 C   0  0
    0.0000    0.7486    0.0000 C   0  0
    0.0000   -0.7486    0.0000 C   0  0
    1.2964   -1.4973    0.0000 N   0  0
    2.5929   -0.7486    0.0000 C   0  0
    2.5929    0.7486    0.0000 C   0  0
    1.2964    1.4973    0.0000 C   0  0
    1.2964    2.9980    0.0000 N   0  0
   -0.0014    3.7503    0.0000 C   0  0
    0.0011    5.2503    0.0000 C   0  0
    1.3014    5.9981    0.0000 C   0  0
    2.5992    5.2460    0.0000 C   0  0
    2.5967    3.7460    0.0000 C   0  0
    1.3069    7.4990    0.0000 N   0  0
    2.6090    8.2454    0.0000 C   0  0
    3.6462    7.6419    0.0000 O   0  0
    2.6145    9.7462    0.0000 N   0  0
    3.9166   10.4926    0.0000 C   0  0
    3.9243   11.9926    0.0000 C   0  0
    5.2272   12.7360    0.0000 C   0  0
    6.5224   11.9794    0.0000 C   0  0
    6.5147   10.4794    0.0000 C   0  0
    5.2119    9.7360    0.0000 C   0  0
    3.6321   -1.3486    0.0000 C   0  0
    7.5647   12.5740    0.0000 Cl  0  0
  1  2  2  0
  2  3  1  0
  3  6  2  0
  5  4  2  0
  4  1  1  0
  5  6  1  0
  6  7  1  0
  7  8  2  0
  8  9  1  0
  9 10  2  0
 10  5  1  0
 11 12  1  0
 11 16  1  0
 12 13  1  0
 13 14  1  0
 14 15  1  0
 15 16  1  0
 10 11  1  0
 14 17  1  0
 17 18  1  0
 18 19  2  0
 18 20  1  0
 20 21  1  0
 21 22  2  0
 22 23  1  0
 23 24  2  0
 24 25  1  0
 25 26  2  0
 26 21  1  0
  8 27  1  0
 24 28  1  0
M  END
> <From> 
www.bindingDB.org

> <BindingDB Reactant_set_id>
50303818

> <Ligand InChI>
InChI=1S/C22H23ClN4O/c1-15-14-21(19-4-2-3-5-20(19)24-15)27-12-10-18(11-13-27)26-22(28)25-17-8-6-16(23)7-9-17/h2-9,14,18H,10-13H2,1H3,(H2,25,26,28)

> <Ligand InChI Key>
GJHFWIYACRNKBC-UHFFFAOYSA-N

> <BindingDB MonomerID>
50066965

> <BindingDB Ligand Name>
CHEMBL3403244

> <Target Name Assigned by Curator or DataSource>
DNA gyrase subunit B

> <Target Source Organism According to Curator or DataSource>


> <Ki (nM)>


> <IC50 (nM)>
 12940

> <Kd (nM)>


> <EC50 (nM)>


> <kon (M-1-s-1)>


> <koff (s-1)>


> <pH>


> <Temp C>


> <Curation/DataSource>
ChEMBL

> <Article DOI>
10.1016/j.bmc.2015.03.004

> <PMID>
25801151

> <PubChem AID>


> <Patent Number>


> <Authors>
Medapi, B; Renuka, J; Saxena, S; Sridevi, JP; Medishetti, R; Kulkarni, P; Yogeeswari, P; Sriram, D

> <Institution>
Birla Institute of Technology&amp; Science-Pilani

> <Link to Ligand in BindingDB>
http://www.bindingdb.org/bind/chemsearch/marvin/MolStructure.jsp?monomerid=50066965

> <Link to Ligand-Target Pair in BindingDB>
http://www.bindingdb.org/jsp/dbsearch/PrimarySearch_ki.jsp?energyterm=kJ/mole&tag=pol&polymerid=50006452&target=DNA+gyrase+subunit+B&column=ki&startPg=0&Increment=50&submit=Search

> <Link to Ligand-Target Pair in BindingDB>
http://www.bindingdb.org/jsp/dbsearch/PrimarySearch_ki.jsp?energyterm=kJ/mole&tag=r21&monomerid=50066965&enzyme=DNA+gyrase+subunit+B&column=ki&startPg=0&Increment=50&submit=Search

> <Ligand HET ID in PDB>


> <PDB ID(s) for Ligand-Target Complex>


> <PubChem CID>
118729660

> <PubChem SID>
103961501

> <ChEBI ID of Ligand>


> <ChEMBL ID of Ligand>
CHEMBL126809

> <DrugBank ID of Ligand>


> <IUPHAR_GRAC ID of Ligand>
1345

> <KEGG ID of Ligand>


> <ZINC ID of Ligand>
ZINC13781218

> <Number of Protein Chains in Target (>1 implies a multichain complex)>
1

> <BindingDB Target Chain Sequence>
MAAQKNNAPKEYGADSITILEGLEAVRKRPGMYIGSTGERGLHHLIWEVVDNAVDEAMAGFATRVDVKIHADGSVEVRDDGRGIPVEMHATGMPTIDVVMTQLHAGGKFDGETYAVSGGLHGVGVSVVNALSTRLEATVLRDGYEWFQYYDRSVPGKLKQGGETKETGTTIRFWADPEIFETTDYNFETVARRLQEMAFLNKGLTIELTDERVTAEEVVDDVVKDTAEAPKTADEKAAEATGPSKVKHRVFHYPGGLVDYVKHINRTKTPIQQSIIDFDGKGPGHEVEIAMQWNAGYSESVHTFANTINTHEGGTHEEGFRAALTSVVNRYAKDKKLLKDKDPNLTGDDIREGLAAVISVKVAEPQFEGQTKTKLGNTEVKSFVQKICNEQLQHWFEANPAEAKTVVNKAVSSAQARIAARKARELVRRKSATDIGGLPGKLADCRSTDPSKSELYVVEGDSAGGSAKSGRDSMFQAILPLRGKIINVEKARIDRVLKNTEVQSIITALGTGIHDEFDISKLRYHKIVLMADADVDGQHISTLLLTLLFRFMKPLVENGHIFLAQPPLYKLKWQRSEPEFAYSDRERDGLLEAGRAAGKKINVDDGIQRYKGLGEMDAKELWETTMDPSVRVLRQVTLDDAAAADELFSILMGEDVEARRSFITRNAKDVRFLDV

> <PDB ID(s) of Target Chain>
4BAE

> <UniProt (SwissProt) Recommended Name of Target Chain>
DNA gyrase subunit B

> <UniProt (SwissProt) Entry Name of Target Chain>
GYRB_MYCSM

> <UniProt (SwissProt) Primary ID of Target Chain>
P0C559

> <UniProt (SwissProt) Secondary ID(s) of Target Chain>
P48355,Q59555

> <UniProt (SwissProt) Alternative ID(s) of Target Chain>


> <UniProt (TrEMBL) Submitted Name of Target Chain>


> <UniProt (TrEMBL) Entry Name of Target Chain>


> <UniProt (TrEMBL) Primary ID of Target Chain>


> <UniProt (TrEMBL) Secondary ID(s) of Target Chain>


> <UniProt (TrEMBL) Alternative ID(s) of Target Chain>


$$$$

  SciTegic12201718382D

 29 33  0  0  0  0            999 V2000
   11.7644   -8.5833    0.0000 C   0  0
   11.0524   -8.1829    0.0000 O   0  0
   12.5444   -7.3547    0.0000 N   0  0
   12.4663   -8.1665    0.0000 C   0  0
   13.2193   -8.4879    0.0000 C   0  0
   13.7565   -7.8761    0.0000 C   0  0
   14.5736   -7.8660    0.0000 C   0  0
   14.9740   -7.1540    0.0000 C   0  0
   14.5572   -6.4521    0.0000 C   0  0
   13.7401   -6.4622    0.0000 C   0  0
   13.3398   -7.1742    0.0000 C   0  0
   11.7745   -9.4004    0.0000 N   0  0
   11.0726   -9.8171    0.0000 C   0  0
   11.0786  -10.6343    0.0000 C   0  0
   11.7947  -11.0346    0.0000 N   0  0
   12.4966  -10.6179    0.0000 C   0  0
   12.4865   -9.8007    0.0000 C   0  0
   11.8209  -13.4859    0.0000 N   0  0
   12.5228  -13.0692    0.0000 C   0  0
   12.5168  -12.2521    0.0000 C   0  0
   11.8007  -11.8517    0.0000 C   0  0
   11.0988  -12.2685    0.0000 C   0  0
   10.3868  -11.8681    0.0000 C   0  0
    9.6849  -12.2849    0.0000 C   0  0
    9.6909  -13.1020    0.0000 C   0  0
   10.4070  -13.5023    0.0000 C   0  0
   11.1089  -13.0856    0.0000 C   0  0
    8.9931  -13.5187    0.0000 Cl  0  0
   15.7911   -7.1443    0.0000 F   0  0
  1  2  2  0
  3  4  1  0
  4  5  2  0
  5  6  1  0
  6  7  1  0
  7  8  2  0
  8  9  1  0
  9 10  2  0
 10 11  1  0
  3 11  1  0
  6 11  2  0
  1  4  1  0
 12 13  1  0
 13 14  1  0
 14 15  1  0
 15 16  1  0
 16 17  1  0
 12 17  1  0
 18 19  2  0
 19 20  1  0
 20 21  2  0
 21 22  1  0
 22 23  2  0
 23 24  1  0
 24 25  2  0
 25 26  1  0
 26 27  2  0
 18 27  1  0
 22 27  1  0
 25 28  1  0
 15 21  1  0
  1 12  1  0
  8 29  1  0
M  END
> <From> 
www.bindingDB.org

> <BindingDB Reactant_set_id>
50528082

> <Ligand InChI>
InChI=1S/C22H18ClFN4O/c23-15-1-3-17-19(13-15)25-6-5-21(17)27-7-9-28(10-8-27)22(29)20-12-14-11-16(24)2-4-18(14)26-20/h1-6,11-13,26H,7-10H2

> <Ligand InChI Key>
ZVLPSUNYLJAOCF-UHFFFAOYSA-N

> <BindingDB MonomerID>
50202226

> <BindingDB Ligand Name>
CHEMBL3895429

> <Target Name Assigned by Curator or DataSource>
DNA gyrase subunit B

> <Target Source Organism According to Curator or DataSource>


> <Ki (nM)>


> <IC50 (nM)>
 13600

> <Kd (nM)>


> <EC50 (nM)>


> <kon (M-1-s-1)>


> <koff (s-1)>


> <pH>


> <Temp C>


> <Curation/DataSource>
ChEMBL

> <Article DOI>
10.1016/j.ejmech.2016.06.042

> <PMID>
27371925

> <PubChem AID>


> <Patent Number>


> <Authors>
Jeankumar, VU; Reshma, RS; Vats, R; Janupally, R; Saxena, S; Yogeeswari, P; Sriram, D

> <Institution>
Birla Institute of Technology&amp; Science-Pilani

> <Link to Ligand in BindingDB>
http://www.bindingdb.org/bind/chemsearch/marvin/MolStructure.jsp?monomerid=50202226

> <Link to Ligand-Target Pair in BindingDB>
http://www.bindingdb.org/jsp/dbsearch/PrimarySearch_ki.jsp?energyterm=kJ/mole&tag=pol&polymerid=50006452&target=DNA+gyrase+subunit+B&column=ki&startPg=0&Increment=50&submit=Search

> <Link to Ligand-Target Pair in BindingDB>
http://www.bindingdb.org/jsp/dbsearch/PrimarySearch_ki.jsp?energyterm=kJ/mole&tag=r21&monomerid=50202226&enzyme=DNA+gyrase+subunit+B&column=ki&startPg=0&Increment=50&submit=Search

> <Ligand HET ID in PDB>


> <PDB ID(s) for Ligand-Target Complex>


> <PubChem CID>
134136997

> <PubChem SID>
375979594

> <ChEBI ID of Ligand>


> <ChEMBL ID of Ligand>


> <DrugBank ID of Ligand>


> <IUPHAR_GRAC ID of Ligand>


> <KEGG ID of Ligand>


> <ZINC ID of Ligand>


> <Number of Protein Chains in Target (>1 implies a multichain complex)>
1

> <BindingDB Target Chain Sequence>
MAAQKNNAPKEYGADSITILEGLEAVRKRPGMYIGSTGERGLHHLIWEVVDNAVDEAMAGFATRVDVKIHADGSVEVRDDGRGIPVEMHATGMPTIDVVMTQLHAGGKFDGETYAVSGGLHGVGVSVVNALSTRLEATVLRDGYEWFQYYDRSVPGKLKQGGETKETGTTIRFWADPEIFETTDYNFETVARRLQEMAFLNKGLTIELTDERVTAEEVVDDVVKDTAEAPKTADEKAAEATGPSKVKHRVFHYPGGLVDYVKHINRTKTPIQQSIIDFDGKGPGHEVEIAMQWNAGYSESVHTFANTINTHEGGTHEEGFRAALTSVVNRYAKDKKLLKDKDPNLTGDDIREGLAAVISVKVAEPQFEGQTKTKLGNTEVKSFVQKICNEQLQHWFEANPAEAKTVVNKAVSSAQARIAARKARELVRRKSATDIGGLPGKLADCRSTDPSKSELYVVEGDSAGGSAKSGRDSMFQAILPLRGKIINVEKARIDRVLKNTEVQSIITALGTGIHDEFDISKLRYHKIVLMADADVDGQHISTLLLTLLFRFMKPLVENGHIFLAQPPLYKLKWQRSEPEFAYSDRERDGLLEAGRAAGKKINVDDGIQRYKGLGEMDAKELWETTMDPSVRVLRQVTLDDAAAADELFSILMGEDVEARRSFITRNAKDVRFLDV

> <PDB ID(s) of Target Chain>
4BAE

> <UniProt (SwissProt) Recommended Name of Target Chain>
DNA gyrase subunit B

> <UniProt (SwissProt) Entry Name of Target Chain>
GYRB_MYCSM

> <UniProt (SwissProt) Primary ID of Target Chain>
P0C559

> <UniProt (SwissProt) Secondary ID(s) of Target Chain>
P48355,Q59555

> <UniProt (SwissProt) Alternative ID(s) of Target Chain>


> <UniProt (TrEMBL) Submitted Name of Target Chain>


> <UniProt (TrEMBL) Entry Name of Target Chain>


> <UniProt (TrEMBL) Primary ID of Target Chain>


> <UniProt (TrEMBL) Secondary ID(s) of Target Chain>


> <UniProt (TrEMBL) Alternative ID(s) of Target Chain>


$$$$

  SciTegic10241708152D

 36 40  0  0  0  0            999 V2000
   26.7141  -10.7968    0.0000 C   0  0
   26.7130  -11.6163    0.0000 C   0  0
   27.4210  -12.0253    0.0000 C   0  0
   27.4192  -10.3879    0.0000 C   0  0
   28.1279  -10.7932    0.0000 C   0  0
   28.1327  -11.6164    0.0000 C   0  0
   28.9171  -11.8662    0.0000 N   0  0
   29.3971  -11.1973    0.0000 C   0  0
   28.9093  -10.5343    0.0000 C   0  0
   29.1572   -9.7556    0.0000 O   0  0
   30.2142  -11.1925    0.0000 O   0  0
   29.1741  -12.6419    0.0000 C   0  0
   28.6309  -13.2524    0.0000 C   0  0
   28.8879  -14.0281    0.0000 N   0  0
   28.3475  -14.6368    0.0000 C   0  0
   28.6016  -15.4098    0.0000 C   0  0
   29.4013  -15.5792    0.0000 N   0  0
   29.9467  -14.9694    0.0000 C   0  0
   29.6923  -14.1900    0.0000 C   0  0
   29.6555  -16.3559    0.0000 N   0  0
   30.4551  -16.5242    0.0000 C   0  0
   31.0007  -15.9158    0.0000 C   0  0
   31.7995  -16.0878    0.0000 C   0  0
   32.3448  -15.4802    0.0000 C   0  0
   32.0908  -14.7025    0.0000 C   0  0
   31.2865  -14.5359    0.0000 C   0  0
   30.7447  -15.1449    0.0000 C   0  0
   32.0516  -16.8651    0.0000 O   0  0
   32.8509  -17.0354    0.0000 C   0  0
   33.3980  -16.4284    0.0000 C   0  0
   34.1956  -16.6016    0.0000 C   0  0
   34.7425  -15.9954    0.0000 C   0  0
   34.4905  -15.2171    0.0000 C   0  0
   33.6866  -15.0485    0.0000 C   0  0
   33.1432  -15.6561    0.0000 C   0  0
   26.0063  -10.3884    0.0000 Cl  0  0
  1  2  2  0
  2  3  1  0
  3  6  2  0
  5  4  2  0
  4  1  1  0
  5  6  1  0
  6  7  1  0
  7  8  1  0
  8  9  1  0
  9  5  1  0
  9 10  2  0
  8 11  2  0
  7 12  1  0
 12 13  1  0
 13 14  1  0
 14 15  1  0
 14 19  1  0
 15 16  1  0
 16 17  1  0
 17 18  1  0
 18 19  1  0
 17 20  1  0
 20 21  1  0
 21 22  1  0
 22 23  2  0
 23 24  1  0
 24 25  2  0
 25 26  1  0
 26 27  2  0
 27 22  1  0
 23 28  1  0
 28 29  1  0
 29 30  1  0
 30 31  2  0
 31 32  1  0
 32 33  2  0
 33 34  1  0
 34 35  2  0
 35 30  1  0
  1 36  1  0
M  END
> <From> 
www.bindingDB.org

> <BindingDB Reactant_set_id>
50543820

> <Ligand InChI>
InChI=1S/C28H29ClN4O3/c29-23-10-11-25-24(18-23)27(34)28(35)33(25)17-14-31-12-15-32(16-13-31)30-19-22-8-4-5-9-26(22)36-20-21-6-2-1-3-7-21/h1-11,18,30H,12-17,19-20H2

> <Ligand InChI Key>
DRRXDXZREZDTGB-UHFFFAOYSA-N

> <BindingDB MonomerID>
50208287

> <BindingDB Ligand Name>
CHEMBL3885251

> <Target Name Assigned by Curator or DataSource>
DNA gyrase subunit B

> <Target Source Organism According to Curator or DataSource>


> <Ki (nM)>


> <IC50 (nM)>
 13800

> <Kd (nM)>


> <EC50 (nM)>


> <kon (M-1-s-1)>


> <koff (s-1)>


> <pH>


> <Temp C>


> <Curation/DataSource>
ChEMBL

> <Article DOI>
10.1016/j.ejmech.2016.08.034

> <PMID>
27569197

> <PubChem AID>


> <Patent Number>


> <Authors>
Chaudhari, K; Surana, S; Jain, P; Patel, HM

> <Institution>
R. C. Patel Institute of Pharmaceutical Education and Research

> <Link to Ligand in BindingDB>
http://www.bindingdb.org/bind/chemsearch/marvin/MolStructure.jsp?monomerid=50208287

> <Link to Ligand-Target Pair in BindingDB>
http://www.bindingdb.org/jsp/dbsearch/PrimarySearch_ki.jsp?energyterm=kJ/mole&tag=pol&polymerid=50006452&target=DNA+gyrase+subunit+B&column=ki&startPg=0&Increment=50&submit=Search

> <Link to Ligand-Target Pair in BindingDB>
http://www.bindingdb.org/jsp/dbsearch/PrimarySearch_ki.jsp?energyterm=kJ/mole&tag=r21&monomerid=50208287&enzyme=DNA+gyrase+subunit+B&column=ki&startPg=0&Increment=50&submit=Search

> <Ligand HET ID in PDB>


> <PDB ID(s) for Ligand-Target Complex>


> <PubChem CID>
134131192

> <PubChem SID>
375981980

> <ChEBI ID of Ligand>


> <ChEMBL ID of Ligand>


> <DrugBank ID of Ligand>


> <IUPHAR_GRAC ID of Ligand>


> <KEGG ID of Ligand>


> <ZINC ID of Ligand>


> <Number of Protein Chains in Target (>1 implies a multichain complex)>
1

> <BindingDB Target Chain Sequence>
MAAQKNNAPKEYGADSITILEGLEAVRKRPGMYIGSTGERGLHHLIWEVVDNAVDEAMAGFATRVDVKIHADGSVEVRDDGRGIPVEMHATGMPTIDVVMTQLHAGGKFDGETYAVSGGLHGVGVSVVNALSTRLEATVLRDGYEWFQYYDRSVPGKLKQGGETKETGTTIRFWADPEIFETTDYNFETVARRLQEMAFLNKGLTIELTDERVTAEEVVDDVVKDTAEAPKTADEKAAEATGPSKVKHRVFHYPGGLVDYVKHINRTKTPIQQSIIDFDGKGPGHEVEIAMQWNAGYSESVHTFANTINTHEGGTHEEGFRAALTSVVNRYAKDKKLLKDKDPNLTGDDIREGLAAVISVKVAEPQFEGQTKTKLGNTEVKSFVQKICNEQLQHWFEANPAEAKTVVNKAVSSAQARIAARKARELVRRKSATDIGGLPGKLADCRSTDPSKSELYVVEGDSAGGSAKSGRDSMFQAILPLRGKIINVEKARIDRVLKNTEVQSIITALGTGIHDEFDISKLRYHKIVLMADADVDGQHISTLLLTLLFRFMKPLVENGHIFLAQPPLYKLKWQRSEPEFAYSDRERDGLLEAGRAAGKKINVDDGIQRYKGLGEMDAKELWETTMDPSVRVLRQVTLDDAAAADELFSILMGEDVEARRSFITRNAKDVRFLDV

> <PDB ID(s) of Target Chain>
4BAE

> <UniProt (SwissProt) Recommended Name of Target Chain>
DNA gyrase subunit B

> <UniProt (SwissProt) Entry Name of Target Chain>
GYRB_MYCSM

> <UniProt (SwissProt) Primary ID of Target Chain>
P0C559

> <UniProt (SwissProt) Secondary ID(s) of Target Chain>
P48355,Q59555

> <UniProt (SwissProt) Alternative ID(s) of Target Chain>


> <UniProt (TrEMBL) Submitted Name of Target Chain>


> <UniProt (TrEMBL) Entry Name of Target Chain>


> <UniProt (TrEMBL) Primary ID of Target Chain>


> <UniProt (TrEMBL) Secondary ID(s) of Target Chain>


> <UniProt (TrEMBL) Alternative ID(s) of Target Chain>


$$$$

  SciTegic12231721362D

 27 30  0  0  0  0            999 V2000
    3.5303  -15.2495    0.0000 N   0  0
    2.8169  -15.6474    0.0000 C   0  0
    2.8040  -16.4645    0.0000 C   0  0
    3.5086  -16.8836    0.0000 N   0  0
    4.2220  -16.4858    0.0000 C   0  0
    4.2308  -15.6687    0.0000 C   0  0
    3.5391  -14.4324    0.0000 C   0  0
    4.2525  -14.0345    0.0000 N   0  0
    2.8387  -14.0132    0.0000 S   0  0
    4.2655  -13.2175    0.0000 C   0  0
    4.9789  -12.8155    0.0000 C   0  0
    4.9918  -11.9984    0.0000 C   0  0
    4.2872  -11.5833    0.0000 C   0  0
    3.5738  -11.9812    0.0000 C   0  0
    3.5650  -12.7983    0.0000 C   0  0
    3.4739  -19.3349    0.0000 N   0  0
    4.1873  -18.9370    0.0000 C   0  0
    4.1961  -18.1199    0.0000 C   0  0
    3.4956  -17.7007    0.0000 C   0  0
    2.7822  -18.0986    0.0000 C   0  0
    2.0818  -17.6794    0.0000 C   0  0
    1.3684  -18.0773    0.0000 C   0  0
    1.3554  -18.8985    0.0000 C   0  0
    2.0559  -19.3136    0.0000 C   0  0
    2.7734  -18.9157    0.0000 C   0  0
    0.6420  -19.2964    0.0000 Cl  0  0
    4.2969  -10.7662    0.0000 C   0  0
  1  2  1  0
  2  3  1  0
  3  4  1  0
  4  5  1  0
  5  6  1  0
  1  6  1  0
  7  8  1  0
  7  9  2  0
  1  7  1  0
 10 11  1  0
 11 12  2  0
 12 13  1  0
 13 14  2  0
 14 15  1  0
 10 15  2  0
  8 10  1  0
 16 17  2  0
 17 18  1  0
 18 19  2  0
 19 20  1  0
 20 21  2  0
 21 22  1  0
 22 23  2  0
 23 24  1  0
 24 25  2  0
 16 25  1  0
 20 25  1  0
 23 26  1  0
  4 19  1  0
 13 27  1  0
M  END
> <From> 
www.bindingDB.org

> <BindingDB Reactant_set_id>
50528057

> <Ligand InChI>
InChI=1S/C21H21ClN4S/c1-15-2-5-17(6-3-15)24-21(27)26-12-10-25(11-13-26)20-8-9-23-19-14-16(22)4-7-18(19)20/h2-9,14H,10-13H2,1H3,(H,24,27)

> <Ligand InChI Key>
VEHKZEGBEPJMSR-UHFFFAOYSA-N

> <BindingDB MonomerID>
50202012

> <BindingDB Ligand Name>
CHEMBL3967891

> <Target Name Assigned by Curator or DataSource>
DNA gyrase subunit B

> <Target Source Organism According to Curator or DataSource>


> <Ki (nM)>


> <IC50 (nM)>
 13800

> <Kd (nM)>


> <EC50 (nM)>


> <kon (M-1-s-1)>


> <koff (s-1)>


> <pH>


> <Temp C>


> <Curation/DataSource>
ChEMBL

> <Article DOI>
10.1016/j.ejmech.2016.06.042

> <PMID>
27371925

> <PubChem AID>


> <Patent Number>


> <Authors>
Jeankumar, VU; Reshma, RS; Vats, R; Janupally, R; Saxena, S; Yogeeswari, P; Sriram, D

> <Institution>
Birla Institute of Technology&amp; Science-Pilani

> <Link to Ligand in BindingDB>
http://www.bindingdb.org/bind/chemsearch/marvin/MolStructure.jsp?monomerid=50202012

> <Link to Ligand-Target Pair in BindingDB>
http://www.bindingdb.org/jsp/dbsearch/PrimarySearch_ki.jsp?energyterm=kJ/mole&tag=pol&polymerid=50006452&target=DNA+gyrase+subunit+B&column=ki&startPg=0&Increment=50&submit=Search

> <Link to Ligand-Target Pair in BindingDB>
http://www.bindingdb.org/jsp/dbsearch/PrimarySearch_ki.jsp?energyterm=kJ/mole&tag=r21&monomerid=50202012&enzyme=DNA+gyrase+subunit+B&column=ki&startPg=0&Increment=50&submit=Search

> <Ligand HET ID in PDB>


> <PDB ID(s) for Ligand-Target Complex>


> <PubChem CID>
134149939

> <PubChem SID>
375979571

> <ChEBI ID of Ligand>


> <ChEMBL ID of Ligand>


> <DrugBank ID of Ligand>


> <IUPHAR_GRAC ID of Ligand>


> <KEGG ID of Ligand>


> <ZINC ID of Ligand>


> <Number of Protein Chains in Target (>1 implies a multichain complex)>
1

> <BindingDB Target Chain Sequence>
MAAQKNNAPKEYGADSITILEGLEAVRKRPGMYIGSTGERGLHHLIWEVVDNAVDEAMAGFATRVDVKIHADGSVEVRDDGRGIPVEMHATGMPTIDVVMTQLHAGGKFDGETYAVSGGLHGVGVSVVNALSTRLEATVLRDGYEWFQYYDRSVPGKLKQGGETKETGTTIRFWADPEIFETTDYNFETVARRLQEMAFLNKGLTIELTDERVTAEEVVDDVVKDTAEAPKTADEKAAEATGPSKVKHRVFHYPGGLVDYVKHINRTKTPIQQSIIDFDGKGPGHEVEIAMQWNAGYSESVHTFANTINTHEGGTHEEGFRAALTSVVNRYAKDKKLLKDKDPNLTGDDIREGLAAVISVKVAEPQFEGQTKTKLGNTEVKSFVQKICNEQLQHWFEANPAEAKTVVNKAVSSAQARIAARKARELVRRKSATDIGGLPGKLADCRSTDPSKSELYVVEGDSAGGSAKSGRDSMFQAILPLRGKIINVEKARIDRVLKNTEVQSIITALGTGIHDEFDISKLRYHKIVLMADADVDGQHISTLLLTLLFRFMKPLVENGHIFLAQPPLYKLKWQRSEPEFAYSDRERDGLLEAGRAAGKKINVDDGIQRYKGLGEMDAKELWETTMDPSVRVLRQVTLDDAAAADELFSILMGEDVEARRSFITRNAKDVRFLDV

> <PDB ID(s) of Target Chain>
4BAE

> <UniProt (SwissProt) Recommended Name of Target Chain>
DNA gyrase subunit B

> <UniProt (SwissProt) Entry Name of Target Chain>
GYRB_MYCSM

> <UniProt (SwissProt) Primary ID of Target Chain>
P0C559

> <UniProt (SwissProt) Secondary ID(s) of Target Chain>
P48355,Q59555

> <UniProt (SwissProt) Alternative ID(s) of Target Chain>


> <UniProt (TrEMBL) Submitted Name of Target Chain>


> <UniProt (TrEMBL) Entry Name of Target Chain>


> <UniProt (TrEMBL) Primary ID of Target Chain>


> <UniProt (TrEMBL) Secondary ID(s) of Target Chain>


> <UniProt (TrEMBL) Alternative ID(s) of Target Chain>


$$$$

  SciTegic10241708182D

 30 33  0  0  0  0            999 V2000
   19.3181  -10.6152    0.0000 C   0  0
   19.3170  -11.4347    0.0000 C   0  0
   20.0250  -11.8437    0.0000 C   0  0
   20.0233  -10.2063    0.0000 C   0  0
   20.7319  -10.6116    0.0000 C   0  0
   20.7367  -11.4348    0.0000 C   0  0
   21.5211  -11.6846    0.0000 N   0  0
   22.0011  -11.0157    0.0000 C   0  0
   21.5133  -10.3527    0.0000 C   0  0
   21.7612   -9.5740    0.0000 O   0  0
   22.8183  -11.0109    0.0000 O   0  0
   21.7781  -12.4603    0.0000 C   0  0
   21.2349  -13.0708    0.0000 C   0  0
   21.4919  -13.8465    0.0000 N   0  0
   20.9515  -14.4552    0.0000 C   0  0
   21.2056  -15.2282    0.0000 C   0  0
   22.0053  -15.3976    0.0000 N   0  0
   22.5507  -14.7878    0.0000 C   0  0
   22.2963  -14.0084    0.0000 C   0  0
   22.2595  -16.1743    0.0000 N   0  0
   23.0591  -16.3426    0.0000 C   0  0
   23.6047  -15.7342    0.0000 C   0  0
   24.4035  -15.9062    0.0000 C   0  0
   24.9488  -15.2986    0.0000 C   0  0
   24.6948  -14.5209    0.0000 C   0  0
   23.8905  -14.3543    0.0000 C   0  0
   23.3487  -14.9633    0.0000 C   0  0
   24.6556  -16.6835    0.0000 O   0  0
   25.4549  -16.8538    0.0000 C   0  0
   18.6103  -10.2068    0.0000 C   0  0
  1  2  2  0
  2  3  1  0
  3  6  2  0
  5  4  2  0
  4  1  1  0
  5  6  1  0
  6  7  1  0
  7  8  1  0
  8  9  1  0
  9  5  1  0
  9 10  2  0
  8 11  2  0
  7 12  1  0
 12 13  1  0
 13 14  1  0
 14 15  1  0
 14 19  1  0
 15 16  1  0
 16 17  1  0
 17 18  1  0
 18 19  1  0
 17 20  1  0
 20 21  1  0
 21 22  1  0
 22 23  2  0
 23 24  1  0
 24 25  2  0
 25 26  1  0
 26 27  2  0
 27 22  1  0
 23 28  1  0
 28 29  1  0
  1 30  1  0
M  END
> <From> 
www.bindingDB.org

> <BindingDB Reactant_set_id>
50543800

> <Ligand InChI>
InChI=1S/C23H28N4O3/c1-17-7-8-20-19(15-17)22(28)23(29)27(20)14-11-25-9-12-26(13-10-25)24-16-18-5-3-4-6-21(18)30-2/h3-8,15,24H,9-14,16H2,1-2H3

> <Ligand InChI Key>
RZVNLOYKWVDDTI-UHFFFAOYSA-N

> <BindingDB MonomerID>
50208267

> <BindingDB Ligand Name>
CHEMBL3885298

> <Target Name Assigned by Curator or DataSource>
DNA gyrase subunit B

> <Target Source Organism According to Curator or DataSource>


> <Ki (nM)>


> <IC50 (nM)>
 14100

> <Kd (nM)>


> <EC50 (nM)>


> <kon (M-1-s-1)>


> <koff (s-1)>


> <pH>


> <Temp C>


> <Curation/DataSource>
ChEMBL

> <Article DOI>
10.1016/j.ejmech.2016.08.034

> <PMID>
27569197

> <PubChem AID>


> <Patent Number>


> <Authors>
Chaudhari, K; Surana, S; Jain, P; Patel, HM

> <Institution>
R. C. Patel Institute of Pharmaceutical Education and Research

> <Link to Ligand in BindingDB>
http://www.bindingdb.org/bind/chemsearch/marvin/MolStructure.jsp?monomerid=50208267

> <Link to Ligand-Target Pair in BindingDB>
http://www.bindingdb.org/jsp/dbsearch/PrimarySearch_ki.jsp?energyterm=kJ/mole&tag=pol&polymerid=50006452&target=DNA+gyrase+subunit+B&column=ki&startPg=0&Increment=50&submit=Search

> <Link to Ligand-Target Pair in BindingDB>
http://www.bindingdb.org/jsp/dbsearch/PrimarySearch_ki.jsp?energyterm=kJ/mole&tag=r21&monomerid=50208267&enzyme=DNA+gyrase+subunit+B&column=ki&startPg=0&Increment=50&submit=Search

> <Ligand HET ID in PDB>


> <PDB ID(s) for Ligand-Target Complex>


> <PubChem CID>
134130446

> <PubChem SID>
375981960

> <ChEBI ID of Ligand>


> <ChEMBL ID of Ligand>


> <DrugBank ID of Ligand>


> <IUPHAR_GRAC ID of Ligand>


> <KEGG ID of Ligand>


> <ZINC ID of Ligand>


> <Number of Protein Chains in Target (>1 implies a multichain complex)>
1

> <BindingDB Target Chain Sequence>
MAAQKNNAPKEYGADSITILEGLEAVRKRPGMYIGSTGERGLHHLIWEVVDNAVDEAMAGFATRVDVKIHADGSVEVRDDGRGIPVEMHATGMPTIDVVMTQLHAGGKFDGETYAVSGGLHGVGVSVVNALSTRLEATVLRDGYEWFQYYDRSVPGKLKQGGETKETGTTIRFWADPEIFETTDYNFETVARRLQEMAFLNKGLTIELTDERVTAEEVVDDVVKDTAEAPKTADEKAAEATGPSKVKHRVFHYPGGLVDYVKHINRTKTPIQQSIIDFDGKGPGHEVEIAMQWNAGYSESVHTFANTINTHEGGTHEEGFRAALTSVVNRYAKDKKLLKDKDPNLTGDDIREGLAAVISVKVAEPQFEGQTKTKLGNTEVKSFVQKICNEQLQHWFEANPAEAKTVVNKAVSSAQARIAARKARELVRRKSATDIGGLPGKLADCRSTDPSKSELYVVEGDSAGGSAKSGRDSMFQAILPLRGKIINVEKARIDRVLKNTEVQSIITALGTGIHDEFDISKLRYHKIVLMADADVDGQHISTLLLTLLFRFMKPLVENGHIFLAQPPLYKLKWQRSEPEFAYSDRERDGLLEAGRAAGKKINVDDGIQRYKGLGEMDAKELWETTMDPSVRVLRQVTLDDAAAADELFSILMGEDVEARRSFITRNAKDVRFLDV

> <PDB ID(s) of Target Chain>
4BAE

> <UniProt (SwissProt) Recommended Name of Target Chain>
DNA gyrase subunit B

> <UniProt (SwissProt) Entry Name of Target Chain>
GYRB_MYCSM

> <UniProt (SwissProt) Primary ID of Target Chain>
P0C559

> <UniProt (SwissProt) Secondary ID(s) of Target Chain>
P48355,Q59555

> <UniProt (SwissProt) Alternative ID(s) of Target Chain>


> <UniProt (TrEMBL) Submitted Name of Target Chain>


> <UniProt (TrEMBL) Entry Name of Target Chain>


> <UniProt (TrEMBL) Primary ID of Target Chain>


> <UniProt (TrEMBL) Secondary ID(s) of Target Chain>


> <UniProt (TrEMBL) Alternative ID(s) of Target Chain>


$$$$

  SciTegic12221711052D

 24 27  0  0  0  0            999 V2000
   12.4083   -8.2294    0.0000 C   0  0
   11.7017   -7.8206    0.0000 O   0  0
   13.2048   -7.0111    0.0000 N   0  0
   13.1158   -7.8251    0.0000 C   0  0
   13.8610   -8.1600    0.0000 C   0  0
   14.4126   -7.5569    0.0000 C   0  0
   14.0042   -6.8453    0.0000 C   0  0
   12.4033   -9.0466    0.0000 N   0  0
   11.6958   -9.4549    0.0000 C   0  0
   11.6908  -10.2721    0.0000 C   0  0
   12.3974  -10.6809    0.0000 N   0  0
   13.1048  -10.2767    0.0000 C   0  0
   13.1099   -9.4595    0.0000 C   0  0
   12.3864  -13.1325    0.0000 N   0  0
   13.0980  -12.7282    0.0000 C   0  0
   13.0989  -11.9110    0.0000 C   0  0
   12.3965  -11.4981    0.0000 C   0  0
   11.6849  -11.9065    0.0000 C   0  0
   10.9783  -11.4935    0.0000 C   0  0
   10.2709  -11.8978    0.0000 C   0  0
   10.2658  -12.7150    0.0000 C   0  0
   10.9724  -13.1279    0.0000 C   0  0
   11.6840  -12.7236    0.0000 C   0  0
    9.5584  -13.1233    0.0000 Cl  0  0
  1  2  2  0
  3  4  1  0
  4  5  2  0
  5  6  1  0
  6  7  2  0
  3  7  1  0
  1  4  1  0
  8  9  1  0
  9 10  1  0
 10 11  1  0
 11 12  1  0
 12 13  1  0
  8 13  1  0
 14 15  2  0
 15 16  1  0
 16 17  2  0
 17 18  1  0
 18 19  2  0
 19 20  1  0
 20 21  2  0
 21 22  1  0
 22 23  2  0
 14 23  1  0
 18 23  1  0
 21 24  1  0
 11 17  1  0
  1  8  1  0
M  END
> <From> 
www.bindingDB.org

> <BindingDB Reactant_set_id>
50528080

> <Ligand InChI>
InChI=1S/C18H17ClN4O/c19-13-3-4-14-16(12-13)21-7-5-17(14)22-8-10-23(11-9-22)18(24)15-2-1-6-20-15/h1-7,12,20H,8-11H2

> <Ligand InChI Key>
MIISBRMTMZOXLO-UHFFFAOYSA-N

> <BindingDB MonomerID>
50202224

> <BindingDB Ligand Name>
CHEMBL3955005

> <Target Name Assigned by Curator or DataSource>
DNA gyrase subunit B

> <Target Source Organism According to Curator or DataSource>


> <Ki (nM)>


> <IC50 (nM)>
 14200

> <Kd (nM)>


> <EC50 (nM)>


> <kon (M-1-s-1)>


> <koff (s-1)>


> <pH>


> <Temp C>


> <Curation/DataSource>
ChEMBL

> <Article DOI>
10.1016/j.ejmech.2016.06.042

> <PMID>
27371925

> <PubChem AID>


> <Patent Number>


> <Authors>
Jeankumar, VU; Reshma, RS; Vats, R; Janupally, R; Saxena, S; Yogeeswari, P; Sriram, D

> <Institution>
Birla Institute of Technology&amp; Science-Pilani

> <Link to Ligand in BindingDB>
http://www.bindingdb.org/bind/chemsearch/marvin/MolStructure.jsp?monomerid=50202224

> <Link to Ligand-Target Pair in BindingDB>
http://www.bindingdb.org/jsp/dbsearch/PrimarySearch_ki.jsp?energyterm=kJ/mole&tag=pol&polymerid=50006452&target=DNA+gyrase+subunit+B&column=ki&startPg=0&Increment=50&submit=Search

> <Link to Ligand-Target Pair in BindingDB>
http://www.bindingdb.org/jsp/dbsearch/PrimarySearch_ki.jsp?energyterm=kJ/mole&tag=r21&monomerid=50202224&enzyme=DNA+gyrase+subunit+B&column=ki&startPg=0&Increment=50&submit=Search

> <Ligand HET ID in PDB>


> <PDB ID(s) for Ligand-Target Complex>


> <PubChem CID>
134145215

> <PubChem SID>
375979592

> <ChEBI ID of Ligand>


> <ChEMBL ID of Ligand>


> <DrugBank ID of Ligand>


> <IUPHAR_GRAC ID of Ligand>


> <KEGG ID of Ligand>


> <ZINC ID of Ligand>


> <Number of Protein Chains in Target (>1 implies a multichain complex)>
1

> <BindingDB Target Chain Sequence>
MAAQKNNAPKEYGADSITILEGLEAVRKRPGMYIGSTGERGLHHLIWEVVDNAVDEAMAGFATRVDVKIHADGSVEVRDDGRGIPVEMHATGMPTIDVVMTQLHAGGKFDGETYAVSGGLHGVGVSVVNALSTRLEATVLRDGYEWFQYYDRSVPGKLKQGGETKETGTTIRFWADPEIFETTDYNFETVARRLQEMAFLNKGLTIELTDERVTAEEVVDDVVKDTAEAPKTADEKAAEATGPSKVKHRVFHYPGGLVDYVKHINRTKTPIQQSIIDFDGKGPGHEVEIAMQWNAGYSESVHTFANTINTHEGGTHEEGFRAALTSVVNRYAKDKKLLKDKDPNLTGDDIREGLAAVISVKVAEPQFEGQTKTKLGNTEVKSFVQKICNEQLQHWFEANPAEAKTVVNKAVSSAQARIAARKARELVRRKSATDIGGLPGKLADCRSTDPSKSELYVVEGDSAGGSAKSGRDSMFQAILPLRGKIINVEKARIDRVLKNTEVQSIITALGTGIHDEFDISKLRYHKIVLMADADVDGQHISTLLLTLLFRFMKPLVENGHIFLAQPPLYKLKWQRSEPEFAYSDRERDGLLEAGRAAGKKINVDDGIQRYKGLGEMDAKELWETTMDPSVRVLRQVTLDDAAAADELFSILMGEDVEARRSFITRNAKDVRFLDV

> <PDB ID(s) of Target Chain>
4BAE

> <UniProt (SwissProt) Recommended Name of Target Chain>
DNA gyrase subunit B

> <UniProt (SwissProt) Entry Name of Target Chain>
GYRB_MYCSM

> <UniProt (SwissProt) Primary ID of Target Chain>
P0C559

> <UniProt (SwissProt) Secondary ID(s) of Target Chain>
P48355,Q59555

> <UniProt (SwissProt) Alternative ID(s) of Target Chain>


> <UniProt (TrEMBL) Submitted Name of Target Chain>


> <UniProt (TrEMBL) Entry Name of Target Chain>


> <UniProt (TrEMBL) Primary ID of Target Chain>


> <UniProt (TrEMBL) Secondary ID(s) of Target Chain>


> <UniProt (TrEMBL) Alternative ID(s) of Target Chain>


$$$$

  SciTegic02271514552D

 30 33  0  0  0  0            999 V2000
   10.1715   -5.7872    0.0000 O   0  0
   10.6518   -5.1261    0.0000 C   0  0
   10.1715   -4.4650    0.0000 C   0  0
    9.3943   -4.7175    0.0000 C   0  0
    9.3943   -5.5347    0.0000 C   0  0
    8.6866   -4.3089    0.0000 C   0  0
    7.9789   -4.7175    0.0000 C   0  0
    7.9789   -5.5347    0.0000 C   0  0
    8.6866   -5.9433    0.0000 C   0  0
   11.4690   -5.1261    0.0000 C   0  0
   11.8776   -5.8338    0.0000 O   0  0
   11.8776   -4.4184    0.0000 O   0  0
    7.2712   -4.3089    0.0000 N   0  0
    6.5635   -4.7175    0.0000 C   0  0
    5.8558   -4.3089    0.0000 C   0  0
    5.8558   -3.4917    0.0000 N   0  0
    6.5635   -3.0831    0.0000 C   0  0
    7.2712   -3.4917    0.0000 C   0  0
    5.1481   -3.0831    0.0000 C   0  0
    5.1481   -2.2659    0.0000 O   0  0
    4.4403   -3.4917    0.0000 C   0  0
    3.7326   -3.0831    0.0000 C   0  0
    3.0249   -3.4917    0.0000 C   0  0
    2.3172   -3.0831    0.0000 C   0  0
    2.3172   -2.2659    0.0000 C   0  0
    3.0249   -1.8573    0.0000 C   0  0
    3.7326   -2.2659    0.0000 C   0  0
    1.6095   -1.8573    0.0000 Cl  0  0
   12.6948   -4.4184    0.0000 C   0  0
   13.1034   -3.7107    0.0000 C   0  0
  1  2  1  0
  2  3  2  0
  3  4  1  0
  4  5  1  0
  1  5  1  0
  6  7  1  0
  7  8  2  0
  8  9  1  0
  5  9  2  0
  4  6  2  0
 10 11  2  0
 10 12  1  0
  2 10  1  0
 13 14  1  0
 14 15  1  0
 15 16  1  0
 16 17  1  0
 17 18  1  0
 13 18  1  0
 19 20  2  0
 19 21  1  0
 22 23  1  0
 23 24  2  0
 24 25  1  0
 25 26  2  0
 26 27  1  0
 22 27  2  0
 25 28  1  0
 21 22  1  0
 16 19  1  0
  7 13  1  0
 29 30  1  0
 12 29  1  0
M  END
> <From> 
www.bindingDB.org

> <BindingDB Reactant_set_id>
50369969

> <Ligand InChI>
InChI=1S/C23H23ClN2O4/c1-2-29-23(28)21-15-17-14-19(7-8-20(17)30-21)25-9-11-26(12-10-25)22(27)13-16-3-5-18(24)6-4-16/h3-8,14-15H,2,9-13H2,1H3

> <Ligand InChI Key>
SUMHQFMMRRAIMV-UHFFFAOYSA-N

> <BindingDB MonomerID>
50100694

> <BindingDB Ligand Name>
CHEMBL3323155

> <Target Name Assigned by Curator or DataSource>
DNA gyrase subunit B

> <Target Source Organism According to Curator or DataSource>


> <Ki (nM)>


> <IC50 (nM)>
 14460

> <Kd (nM)>


> <EC50 (nM)>


> <kon (M-1-s-1)>


> <koff (s-1)>


> <pH>


> <Temp C>


> <Curation/DataSource>
ChEMBL

> <Article DOI>
10.1016/j.bmc.2014.06.041

> <PMID>
25129171

> <PubChem AID>


> <Patent Number>


> <Authors>
Renuka, J; Reddy, KI; Srihari, K; Jeankumar, VU; Shravan, M; Sridevi, JP; Yogeeswari, P; Babu, KS; Sriram, D

> <Institution>
Institute of Technology&amp; Science-Pilani

> <Link to Ligand in BindingDB>
http://www.bindingdb.org/bind/chemsearch/marvin/MolStructure.jsp?monomerid=50100694

> <Link to Ligand-Target Pair in BindingDB>
http://www.bindingdb.org/jsp/dbsearch/PrimarySearch_ki.jsp?energyterm=kJ/mole&tag=pol&polymerid=50006452&target=DNA+gyrase+subunit+B&column=ki&startPg=0&Increment=50&submit=Search

> <Link to Ligand-Target Pair in BindingDB>
http://www.bindingdb.org/jsp/dbsearch/PrimarySearch_ki.jsp?energyterm=kJ/mole&tag=r21&monomerid=50100694&enzyme=DNA+gyrase+subunit+B&column=ki&startPg=0&Increment=50&submit=Search

> <Ligand HET ID in PDB>


> <PDB ID(s) for Ligand-Target Complex>


> <PubChem CID>
118710567

> <PubChem SID>
103997422

> <ChEBI ID of Ligand>


> <ChEMBL ID of Ligand>
CHEMBL70755

> <DrugBank ID of Ligand>


> <IUPHAR_GRAC ID of Ligand>


> <KEGG ID of Ligand>


> <ZINC ID of Ligand>
ZINC26295990

> <Number of Protein Chains in Target (>1 implies a multichain complex)>
1

> <BindingDB Target Chain Sequence>
MAAQKNNAPKEYGADSITILEGLEAVRKRPGMYIGSTGERGLHHLIWEVVDNAVDEAMAGFATRVDVKIHADGSVEVRDDGRGIPVEMHATGMPTIDVVMTQLHAGGKFDGETYAVSGGLHGVGVSVVNALSTRLEATVLRDGYEWFQYYDRSVPGKLKQGGETKETGTTIRFWADPEIFETTDYNFETVARRLQEMAFLNKGLTIELTDERVTAEEVVDDVVKDTAEAPKTADEKAAEATGPSKVKHRVFHYPGGLVDYVKHINRTKTPIQQSIIDFDGKGPGHEVEIAMQWNAGYSESVHTFANTINTHEGGTHEEGFRAALTSVVNRYAKDKKLLKDKDPNLTGDDIREGLAAVISVKVAEPQFEGQTKTKLGNTEVKSFVQKICNEQLQHWFEANPAEAKTVVNKAVSSAQARIAARKARELVRRKSATDIGGLPGKLADCRSTDPSKSELYVVEGDSAGGSAKSGRDSMFQAILPLRGKIINVEKARIDRVLKNTEVQSIITALGTGIHDEFDISKLRYHKIVLMADADVDGQHISTLLLTLLFRFMKPLVENGHIFLAQPPLYKLKWQRSEPEFAYSDRERDGLLEAGRAAGKKINVDDGIQRYKGLGEMDAKELWETTMDPSVRVLRQVTLDDAAAADELFSILMGEDVEARRSFITRNAKDVRFLDV

> <PDB ID(s) of Target Chain>
4BAE

> <UniProt (SwissProt) Recommended Name of Target Chain>
DNA gyrase subunit B

> <UniProt (SwissProt) Entry Name of Target Chain>
GYRB_MYCSM

> <UniProt (SwissProt) Primary ID of Target Chain>
P0C559

> <UniProt (SwissProt) Secondary ID(s) of Target Chain>
P48355,Q59555

> <UniProt (SwissProt) Alternative ID(s) of Target Chain>


> <UniProt (TrEMBL) Submitted Name of Target Chain>


> <UniProt (TrEMBL) Entry Name of Target Chain>


> <UniProt (TrEMBL) Primary ID of Target Chain>


> <UniProt (TrEMBL) Secondary ID(s) of Target Chain>


> <UniProt (TrEMBL) Alternative ID(s) of Target Chain>


$$$$

  SciTegic12241703492D

 29 32  0  0  0  0            999 V2000
    5.7847   -4.4875    0.0000 C   0  0
    5.0727   -4.8952    0.0000 C   0  0
    5.7865   -3.6704    0.0000 O   0  0
    6.4909   -4.9012    0.0000 N   0  0
    7.2886   -3.6838    0.0000 S   0  0
    7.1988   -4.4977    0.0000 C   0  0
    7.9436   -4.8292    0.0000 N   0  0
    8.4958   -4.2267    0.0000 C   0  0
    8.0882   -3.5188    0.0000 C   0  0
    8.4238   -2.7739    0.0000 N   0  3
    7.9484   -2.1072    0.0000 O   0  0
    9.2389   -2.6916    0.0000 O   0  5
    5.0710   -5.7124    0.0000 N   0  0
    4.3590   -6.1159    0.0000 C   0  0
    4.3572   -6.9331    0.0000 C   0  0
    5.0634   -7.3467    0.0000 N   0  0
    5.7713   -6.9391    0.0000 C   0  0
    5.7771   -6.1219    0.0000 C   0  0
    5.0499   -9.7983    0.0000 N   0  0
    5.7619   -9.3906    0.0000 C   0  0
    5.7637   -8.5734    0.0000 C   0  0
    5.0575   -8.1639    0.0000 C   0  0
    4.3496   -8.5674    0.0000 C   0  0
    3.6435   -8.1579    0.0000 C   0  0
    2.9356   -8.5614    0.0000 C   0  0
    2.9297   -9.3786    0.0000 C   0  0
    3.6359   -9.7922    0.0000 C   0  0
    4.3438   -9.3846    0.0000 C   0  0
    2.2219   -9.7821    0.0000 Cl  0  0
  1  2  1  0
  1  3  2  0
  1  4  1  0
  5  6  1  0
  6  7  2  0
  7  8  1  0
  8  9  2  0
  5  9  1  0
 10 11  2  0
 10 12  1  0
  9 10  1  0
  4  6  1  0
 13 14  1  0
 14 15  1  0
 15 16  1  0
 16 17  1  0
 17 18  1  0
 13 18  1  0
 19 20  2  0
 20 21  1  0
 21 22  2  0
 22 23  1  0
 23 24  2  0
 24 25  1  0
 25 26  2  0
 26 27  1  0
 27 28  2  0
 19 28  1  0
 23 28  1  0
 26 29  1  0
 16 22  1  0
  2 13  1  0
M  CHG  2  10   1  12  -1
M  END
> <From> 
www.bindingDB.org

> <BindingDB Reactant_set_id>
50528056

> <Ligand InChI>
InChI=1S/C18H17ClN6O3S/c19-12-1-2-13-14(9-12)20-4-3-15(13)24-7-5-23(6-8-24)11-16(26)22-18-21-10-17(29-18)25(27)28/h1-4,9-10H,5-8,11H2,(H,21,22,26)

> <Ligand InChI Key>
PFIJUFCFDBWLKM-UHFFFAOYSA-N

> <BindingDB MonomerID>
50202011

> <BindingDB Ligand Name>
CHEMBL3977204

> <Target Name Assigned by Curator or DataSource>
DNA gyrase subunit B

> <Target Source Organism According to Curator or DataSource>


> <Ki (nM)>


> <IC50 (nM)>
 14600

> <Kd (nM)>


> <EC50 (nM)>


> <kon (M-1-s-1)>


> <koff (s-1)>


> <pH>


> <Temp C>


> <Curation/DataSource>
ChEMBL

> <Article DOI>
10.1016/j.ejmech.2016.06.042

> <PMID>
27371925

> <PubChem AID>


> <Patent Number>


> <Authors>
Jeankumar, VU; Reshma, RS; Vats, R; Janupally, R; Saxena, S; Yogeeswari, P; Sriram, D

> <Institution>
Birla Institute of Technology&amp; Science-Pilani

> <Link to Ligand in BindingDB>
http://www.bindingdb.org/bind/chemsearch/marvin/MolStructure.jsp?monomerid=50202011

> <Link to Ligand-Target Pair in BindingDB>
http://www.bindingdb.org/jsp/dbsearch/PrimarySearch_ki.jsp?energyterm=kJ/mole&tag=pol&polymerid=50006452&target=DNA+gyrase+subunit+B&column=ki&startPg=0&Increment=50&submit=Search

> <Link to Ligand-Target Pair in BindingDB>
http://www.bindingdb.org/jsp/dbsearch/PrimarySearch_ki.jsp?energyterm=kJ/mole&tag=r21&monomerid=50202011&enzyme=DNA+gyrase+subunit+B&column=ki&startPg=0&Increment=50&submit=Search

> <Ligand HET ID in PDB>


> <PDB ID(s) for Ligand-Target Complex>


> <PubChem CID>
129841607

> <PubChem SID>
375979570

> <ChEBI ID of Ligand>


> <ChEMBL ID of Ligand>


> <DrugBank ID of Ligand>


> <IUPHAR_GRAC ID of Ligand>


> <KEGG ID of Ligand>


> <ZINC ID of Ligand>


> <Number of Protein Chains in Target (>1 implies a multichain complex)>
1

> <BindingDB Target Chain Sequence>
MAAQKNNAPKEYGADSITILEGLEAVRKRPGMYIGSTGERGLHHLIWEVVDNAVDEAMAGFATRVDVKIHADGSVEVRDDGRGIPVEMHATGMPTIDVVMTQLHAGGKFDGETYAVSGGLHGVGVSVVNALSTRLEATVLRDGYEWFQYYDRSVPGKLKQGGETKETGTTIRFWADPEIFETTDYNFETVARRLQEMAFLNKGLTIELTDERVTAEEVVDDVVKDTAEAPKTADEKAAEATGPSKVKHRVFHYPGGLVDYVKHINRTKTPIQQSIIDFDGKGPGHEVEIAMQWNAGYSESVHTFANTINTHEGGTHEEGFRAALTSVVNRYAKDKKLLKDKDPNLTGDDIREGLAAVISVKVAEPQFEGQTKTKLGNTEVKSFVQKICNEQLQHWFEANPAEAKTVVNKAVSSAQARIAARKARELVRRKSATDIGGLPGKLADCRSTDPSKSELYVVEGDSAGGSAKSGRDSMFQAILPLRGKIINVEKARIDRVLKNTEVQSIITALGTGIHDEFDISKLRYHKIVLMADADVDGQHISTLLLTLLFRFMKPLVENGHIFLAQPPLYKLKWQRSEPEFAYSDRERDGLLEAGRAAGKKINVDDGIQRYKGLGEMDAKELWETTMDPSVRVLRQVTLDDAAAADELFSILMGEDVEARRSFITRNAKDVRFLDV

> <PDB ID(s) of Target Chain>
4BAE

> <UniProt (SwissProt) Recommended Name of Target Chain>
DNA gyrase subunit B

> <UniProt (SwissProt) Entry Name of Target Chain>
GYRB_MYCSM

> <UniProt (SwissProt) Primary ID of Target Chain>
P0C559

> <UniProt (SwissProt) Secondary ID(s) of Target Chain>
P48355,Q59555

> <UniProt (SwissProt) Alternative ID(s) of Target Chain>


> <UniProt (TrEMBL) Submitted Name of Target Chain>


> <UniProt (TrEMBL) Entry Name of Target Chain>


> <UniProt (TrEMBL) Primary ID of Target Chain>


> <UniProt (TrEMBL) Secondary ID(s) of Target Chain>


> <UniProt (TrEMBL) Alternative ID(s) of Target Chain>


$$$$

  SciTegic12241709102D

 27 30  0  0  0  0            999 V2000
    4.1678   -2.6502    0.0000 C   0  0
    3.4628   -3.0659    0.0000 C   0  0
    4.1638   -1.8330    0.0000 O   0  0
    4.8768   -3.0558    0.0000 N   0  0
    5.5818   -2.6402    0.0000 C   0  0
    6.2950   -3.0458    0.0000 C   0  0
    3.4668   -3.8830    0.0000 N   0  0
    2.7619   -4.2945    0.0000 C   0  0
    2.7659   -5.1117    0.0000 C   0  0
    3.4790   -5.5174    0.0000 N   0  0
    4.1840   -5.1017    0.0000 C   0  0
    4.1800   -4.2845    0.0000 C   0  0
    3.4953   -7.9688    0.0000 N   0  0
    4.2003   -7.5532    0.0000 C   0  0
    4.1962   -6.7360    0.0000 C   0  0
    3.4831   -6.3345    0.0000 C   0  0
    2.7781   -6.7460    0.0000 C   0  0
    2.0691   -6.3404    0.0000 C   0  0
    1.3641   -6.7560    0.0000 C   0  0
    1.3681   -7.5732    0.0000 C   0  0
    2.0771   -7.9747    0.0000 C   0  0
    2.7821   -7.5632    0.0000 C   0  0
    0.6631   -7.9847    0.0000 Cl  0  0
    6.3858   -3.8602    0.0000 S   0  0
    7.1894   -4.0256    0.0000 C   0  0
    7.5950   -3.3124    0.0000 C   0  0
    7.0421   -2.7063    0.0000 C   0  0
  1  2  1  0
  1  3  2  0
  1  4  1  0
  5  6  1  0
  4  5  1  0
  7  8  1  0
  8  9  1  0
  9 10  1  0
 10 11  1  0
 11 12  1  0
  7 12  1  0
 13 14  2  0
 14 15  1  0
 15 16  2  0
 16 17  1  0
 17 18  2  0
 18 19  1  0
 19 20  2  0
 20 21  1  0
 21 22  2  0
 13 22  1  0
 17 22  1  0
 20 23  1  0
 10 16  1  0
  2  7  1  0
  6 24  1  0
 24 25  1  0
 25 26  2  0
 26 27  1  0
 27  6  2  0
M  END
> <From> 
www.bindingDB.org

> <BindingDB Reactant_set_id>
50528048

> <Ligand InChI>
InChI=1S/C20H21ClN4OS/c21-15-3-4-17-18(12-15)22-6-5-19(17)25-9-7-24(8-10-25)14-20(26)23-13-16-2-1-11-27-16/h1-6,11-12H,7-10,13-14H2,(H,23,26)

> <Ligand InChI Key>
DBLIQKRBSWXTHW-UHFFFAOYSA-N

> <BindingDB MonomerID>
50202003

> <BindingDB Ligand Name>
CHEMBL3985287

> <Target Name Assigned by Curator or DataSource>
DNA gyrase subunit B

> <Target Source Organism According to Curator or DataSource>


> <Ki (nM)>


> <IC50 (nM)>
 14800

> <Kd (nM)>


> <EC50 (nM)>


> <kon (M-1-s-1)>


> <koff (s-1)>


> <pH>


> <Temp C>


> <Curation/DataSource>
ChEMBL

> <Article DOI>
10.1016/j.ejmech.2016.06.042

> <PMID>
27371925

> <PubChem AID>


> <Patent Number>


> <Authors>
Jeankumar, VU; Reshma, RS; Vats, R; Janupally, R; Saxena, S; Yogeeswari, P; Sriram, D

> <Institution>
Birla Institute of Technology&amp; Science-Pilani

> <Link to Ligand in BindingDB>
http://www.bindingdb.org/bind/chemsearch/marvin/MolStructure.jsp?monomerid=50202003

> <Link to Ligand-Target Pair in BindingDB>
http://www.bindingdb.org/jsp/dbsearch/PrimarySearch_ki.jsp?energyterm=kJ/mole&tag=pol&polymerid=50006452&target=DNA+gyrase+subunit+B&column=ki&startPg=0&Increment=50&submit=Search

> <Link to Ligand-Target Pair in BindingDB>
http://www.bindingdb.org/jsp/dbsearch/PrimarySearch_ki.jsp?energyterm=kJ/mole&tag=r21&monomerid=50202003&enzyme=DNA+gyrase+subunit+B&column=ki&startPg=0&Increment=50&submit=Search

> <Ligand HET ID in PDB>


> <PDB ID(s) for Ligand-Target Complex>


> <PubChem CID>
134157391

> <PubChem SID>
375979562

> <ChEBI ID of Ligand>


> <ChEMBL ID of Ligand>


> <DrugBank ID of Ligand>


> <IUPHAR_GRAC ID of Ligand>


> <KEGG ID of Ligand>


> <ZINC ID of Ligand>


> <Number of Protein Chains in Target (>1 implies a multichain complex)>
1

> <BindingDB Target Chain Sequence>
MAAQKNNAPKEYGADSITILEGLEAVRKRPGMYIGSTGERGLHHLIWEVVDNAVDEAMAGFATRVDVKIHADGSVEVRDDGRGIPVEMHATGMPTIDVVMTQLHAGGKFDGETYAVSGGLHGVGVSVVNALSTRLEATVLRDGYEWFQYYDRSVPGKLKQGGETKETGTTIRFWADPEIFETTDYNFETVARRLQEMAFLNKGLTIELTDERVTAEEVVDDVVKDTAEAPKTADEKAAEATGPSKVKHRVFHYPGGLVDYVKHINRTKTPIQQSIIDFDGKGPGHEVEIAMQWNAGYSESVHTFANTINTHEGGTHEEGFRAALTSVVNRYAKDKKLLKDKDPNLTGDDIREGLAAVISVKVAEPQFEGQTKTKLGNTEVKSFVQKICNEQLQHWFEANPAEAKTVVNKAVSSAQARIAARKARELVRRKSATDIGGLPGKLADCRSTDPSKSELYVVEGDSAGGSAKSGRDSMFQAILPLRGKIINVEKARIDRVLKNTEVQSIITALGTGIHDEFDISKLRYHKIVLMADADVDGQHISTLLLTLLFRFMKPLVENGHIFLAQPPLYKLKWQRSEPEFAYSDRERDGLLEAGRAAGKKINVDDGIQRYKGLGEMDAKELWETTMDPSVRVLRQVTLDDAAAADELFSILMGEDVEARRSFITRNAKDVRFLDV

> <PDB ID(s) of Target Chain>
4BAE

> <UniProt (SwissProt) Recommended Name of Target Chain>
DNA gyrase subunit B

> <UniProt (SwissProt) Entry Name of Target Chain>
GYRB_MYCSM

> <UniProt (SwissProt) Primary ID of Target Chain>
P0C559

> <UniProt (SwissProt) Secondary ID(s) of Target Chain>
P48355,Q59555

> <UniProt (SwissProt) Alternative ID(s) of Target Chain>


> <UniProt (TrEMBL) Submitted Name of Target Chain>


> <UniProt (TrEMBL) Entry Name of Target Chain>


> <UniProt (TrEMBL) Primary ID of Target Chain>


> <UniProt (TrEMBL) Secondary ID(s) of Target Chain>


> <UniProt (TrEMBL) Alternative ID(s) of Target Chain>


$$$$

  SciTegic09081514182D

 31 34  0  0  0  0            999 V2000
   -2.6111    0.7486    0.0000 C   0  0
   -2.6111   -0.7486    0.0000 C   0  0
   -1.2964   -1.4973    0.0000 C   0  0
   -1.2964    1.4973    0.0000 C   0  0
    0.0000    0.7486    0.0000 C   0  0
    0.0000   -0.7486    0.0000 C   0  0
    1.2964   -1.4973    0.0000 N   0  0
    2.5929   -0.7486    0.0000 C   0  0
    2.5929    0.7486    0.0000 C   0  0
    1.2964    1.4973    0.0000 C   0  0
    1.2964    2.9980    0.0000 N   0  0
   -0.0014    3.7503    0.0000 C   0  0
    0.0011    5.2503    0.0000 C   0  0
    1.3014    5.9981    0.0000 C   0  0
    2.5992    5.2460    0.0000 C   0  0
    2.5967    3.7460    0.0000 C   0  0
    1.3069    7.4990    0.0000 N   0  0
    2.6090    8.2454    0.0000 C   0  0
    3.6462    7.6419    0.0000 O   0  0
    2.6145    9.7462    0.0000 N   0  0
    3.9166   10.4926    0.0000 C   0  0
    3.9243   11.9926    0.0000 C   0  0
    5.2272   12.7360    0.0000 C   0  0
    6.5224   11.9794    0.0000 C   0  0
    6.5147   10.4794    0.0000 C   0  0
    5.2119    9.7360    0.0000 C   0  0
    3.6321   -1.3486    0.0000 C   0  0
   -3.9106    1.4992    0.0000 C   0  0
   -4.9503    0.9000    0.0000 F   0  0
   -3.9101    2.6992    0.0000 F   0  0
   -4.9495    2.0999    0.0000 F   0  0
  1  2  2  0
  2  3  1  0
  3  6  2  0
  5  4  2  0
  4  1  1  0
  5  6  1  0
  6  7  1  0
  7  8  2  0
  8  9  1  0
  9 10  2  0
 10  5  1  0
 11 12  1  0
 11 16  1  0
 12 13  1  0
 13 14  1  0
 14 15  1  0
 15 16  1  0
 10 11  1  0
 14 17  1  0
 17 18  1  0
 18 19  2  0
 18 20  1  0
 20 21  1  0
 21 22  2  0
 22 23  1  0
 23 24  2  0
 24 25  1  0
 25 26  2  0
 26 21  1  0
  8 27  1  0
  1 28  1  0
 28 29  1  0
 28 30  1  0
 28 31  1  0
M  END
> <From> 
www.bindingDB.org

> <BindingDB Reactant_set_id>
50303799

> <Ligand InChI>
InChI=1S/C23H23F3N4O/c1-15-13-21(19-14-16(23(24,25)26)7-8-20(19)27-15)30-11-9-18(10-12-30)29-22(31)28-17-5-3-2-4-6-17/h2-8,13-14,18H,9-12H2,1H3,(H2,28,29,31)

> <Ligand InChI Key>
ZUEKHJUYKIAOFB-UHFFFAOYSA-N

> <BindingDB MonomerID>
50067054

> <BindingDB Ligand Name>
CHEMBL3403260

> <Target Name Assigned by Curator or DataSource>
DNA gyrase subunit B

> <Target Source Organism According to Curator or DataSource>


> <Ki (nM)>


> <IC50 (nM)>
 14900

> <Kd (nM)>


> <EC50 (nM)>


> <kon (M-1-s-1)>


> <koff (s-1)>


> <pH>


> <Temp C>


> <Curation/DataSource>
ChEMBL

> <Article DOI>
10.1016/j.bmc.2015.03.004

> <PMID>
25801151

> <PubChem AID>


> <Patent Number>


> <Authors>
Medapi, B; Renuka, J; Saxena, S; Sridevi, JP; Medishetti, R; Kulkarni, P; Yogeeswari, P; Sriram, D

> <Institution>
Birla Institute of Technology&amp; Science-Pilani

> <Link to Ligand in BindingDB>
http://www.bindingdb.org/bind/chemsearch/marvin/MolStructure.jsp?monomerid=50067054

> <Link to Ligand-Target Pair in BindingDB>
http://www.bindingdb.org/jsp/dbsearch/PrimarySearch_ki.jsp?energyterm=kJ/mole&tag=pol&polymerid=50006452&target=DNA+gyrase+subunit+B&column=ki&startPg=0&Increment=50&submit=Search

> <Link to Ligand-Target Pair in BindingDB>
http://www.bindingdb.org/jsp/dbsearch/PrimarySearch_ki.jsp?energyterm=kJ/mole&tag=r21&monomerid=50067054&enzyme=DNA+gyrase+subunit+B&column=ki&startPg=0&Increment=50&submit=Search

> <Ligand HET ID in PDB>


> <PDB ID(s) for Ligand-Target Complex>


> <PubChem CID>
118729676

> <PubChem SID>
103961586

> <ChEBI ID of Ligand>


> <ChEMBL ID of Ligand>
CHEMBL339981

> <DrugBank ID of Ligand>


> <IUPHAR_GRAC ID of Ligand>


> <KEGG ID of Ligand>


> <ZINC ID of Ligand>
ZINC13781314

> <Number of Protein Chains in Target (>1 implies a multichain complex)>
1

> <BindingDB Target Chain Sequence>
MAAQKNNAPKEYGADSITILEGLEAVRKRPGMYIGSTGERGLHHLIWEVVDNAVDEAMAGFATRVDVKIHADGSVEVRDDGRGIPVEMHATGMPTIDVVMTQLHAGGKFDGETYAVSGGLHGVGVSVVNALSTRLEATVLRDGYEWFQYYDRSVPGKLKQGGETKETGTTIRFWADPEIFETTDYNFETVARRLQEMAFLNKGLTIELTDERVTAEEVVDDVVKDTAEAPKTADEKAAEATGPSKVKHRVFHYPGGLVDYVKHINRTKTPIQQSIIDFDGKGPGHEVEIAMQWNAGYSESVHTFANTINTHEGGTHEEGFRAALTSVVNRYAKDKKLLKDKDPNLTGDDIREGLAAVISVKVAEPQFEGQTKTKLGNTEVKSFVQKICNEQLQHWFEANPAEAKTVVNKAVSSAQARIAARKARELVRRKSATDIGGLPGKLADCRSTDPSKSELYVVEGDSAGGSAKSGRDSMFQAILPLRGKIINVEKARIDRVLKNTEVQSIITALGTGIHDEFDISKLRYHKIVLMADADVDGQHISTLLLTLLFRFMKPLVENGHIFLAQPPLYKLKWQRSEPEFAYSDRERDGLLEAGRAAGKKINVDDGIQRYKGLGEMDAKELWETTMDPSVRVLRQVTLDDAAAADELFSILMGEDVEARRSFITRNAKDVRFLDV

> <PDB ID(s) of Target Chain>
4BAE

> <UniProt (SwissProt) Recommended Name of Target Chain>
DNA gyrase subunit B

> <UniProt (SwissProt) Entry Name of Target Chain>
GYRB_MYCSM

> <UniProt (SwissProt) Primary ID of Target Chain>
P0C559

> <UniProt (SwissProt) Secondary ID(s) of Target Chain>
P48355,Q59555

> <UniProt (SwissProt) Alternative ID(s) of Target Chain>


> <UniProt (TrEMBL) Submitted Name of Target Chain>


> <UniProt (TrEMBL) Entry Name of Target Chain>


> <UniProt (TrEMBL) Primary ID of Target Chain>


> <UniProt (TrEMBL) Secondary ID(s) of Target Chain>


> <UniProt (TrEMBL) Alternative ID(s) of Target Chain>


$$$$

  SciTegic04201612532D

 34 37  0  0  0  0            999 V2000
   -1.2964    1.4973    0.0000 N   0  0
   -2.6111    0.7486    0.0000 C   0  0
   -2.6111   -0.7486    0.0000 C   0  0
   -1.2964   -1.4973    0.0000 C   0  0
    0.0000   -0.7486    0.0000 C   0  0
    1.2964   -1.4973    0.0000 C   0  0
    2.5929   -0.7486    0.0000 C   0  0
    2.5929    0.7486    0.0000 C   0  0
    1.2964    1.4973    0.0000 C   0  0
    0.0000    0.7486    0.0000 C   0  0
   -3.9122   -1.4966    0.0000 C   0  0
   -3.9138   -2.4966    0.0000 O   0  0
   -5.2109   -0.7445    0.0000 O   0  0
   -1.2907   -2.9981    0.0000 N   0  0
   -2.5870   -3.7544    0.0000 C   0  0
   -2.5835   -5.2544    0.0000 C   0  0
   -3.8807   -6.0076    0.0000 C   0  0
   -5.1815   -5.2608    0.0000 C   0  0
   -5.1852   -3.7608    0.0000 C   0  0
   -3.8880   -3.0076    0.0000 C   0  0
   -6.4810   -6.0117    0.0000 O   0  0
   -7.7815   -5.2626    0.0000 C   0  0
   -9.0810   -6.0135    0.0000 C   0  0
  -10.3815   -5.2644    0.0000 C   0  0
  -14.2755   -7.5217    0.0000 O   0  0
  -14.2791   -6.0217    0.0000 C   0  0
  -12.9819   -5.2686    0.0000 C   0  0
  -11.6810   -6.0154    0.0000 N   0  0
  -11.6774   -7.5154    0.0000 C   0  0
  -12.9746   -8.2686    0.0000 C   0  0
   -6.5121   -1.4924    0.0000 C   0  0
   -7.5506   -0.8910    0.0000 C   0  0
    3.8942   -1.4964    0.0000 O   0  0
    4.9326   -0.8949    0.0000 C   0  0
  1  2  2  0
  2  3  1  0
  3  4  2  0
  4  5  1  0
  5  6  2  0
  6  7  1  0
  7  8  2  0
  8  9  1  0
  9 10  2  0
  1 10  1  0
  5 10  1  0
 11 12  2  0
 11 13  1  0
  3 11  1  0
 15 16  1  0
 16 17  2  0
 17 18  1  0
 18 19  2  0
 19 20  1  0
 15 20  2  0
 22 23  1  0
 23 24  1  0
 21 22  1  0
 25 26  1  0
 26 27  1  0
 27 28  1  0
 28 29  1  0
 29 30  1  0
 25 30  1  0
 24 28  1  0
 18 21  1  0
 14 15  1  0
  4 14  1  0
 31 32  1  0
 13 31  1  0
 33 34  1  0
  7 33  1  0
M  END
> <From> 
www.bindingDB.org

> <BindingDB Reactant_set_id>
50426793

> <Ligand InChI>
InChI=1S/C26H31N3O5/c1-3-33-26(30)23-18-27-24-10-9-21(31-2)17-22(24)25(23)28-19-5-7-20(8-6-19)34-14-4-11-29-12-15-32-16-13-29/h5-10,17-18H,3-4,11-16H2,1-2H3,(H,27,28)

> <Ligand InChI Key>
GLBLSSVZDIACNM-UHFFFAOYSA-N

> <BindingDB MonomerID>
50126840

> <BindingDB Ligand Name>
CHEMBL3628348

> <Target Name Assigned by Curator or DataSource>
DNA gyrase subunit B

> <Target Source Organism According to Curator or DataSource>


> <Ki (nM)>


> <IC50 (nM)>
 14920

> <Kd (nM)>


> <EC50 (nM)>


> <kon (M-1-s-1)>


> <koff (s-1)>


> <pH>


> <Temp C>


> <Curation/DataSource>
ChEMBL

> <Article DOI>
10.1016/j.ejmech.2015.06.032

> <PMID>
26318054

> <PubChem AID>


> <Patent Number>


> <Authors>
Medapi, B; Suryadevara, P; Renuka, J; Sridevi, JP; Yogeeswari, P; Sriram, D

> <Institution>
Birla Institute of Technology&amp;Science

> <Link to Ligand in BindingDB>
http://www.bindingdb.org/bind/chemsearch/marvin/MolStructure.jsp?monomerid=50126840

> <Link to Ligand-Target Pair in BindingDB>
http://www.bindingdb.org/jsp/dbsearch/PrimarySearch_ki.jsp?energyterm=kJ/mole&tag=pol&polymerid=50006452&target=DNA+gyrase+subunit+B&column=ki&startPg=0&Increment=50&submit=Search

> <Link to Ligand-Target Pair in BindingDB>
http://www.bindingdb.org/jsp/dbsearch/PrimarySearch_ki.jsp?energyterm=kJ/mole&tag=r21&monomerid=50126840&enzyme=DNA+gyrase+subunit+B&column=ki&startPg=0&Increment=50&submit=Search

> <Ligand HET ID in PDB>


> <PDB ID(s) for Ligand-Target Complex>


> <PubChem CID>
122193389

> <PubChem SID>
104018908

> <ChEBI ID of Ligand>


> <ChEMBL ID of Ligand>


> <DrugBank ID of Ligand>


> <IUPHAR_GRAC ID of Ligand>


> <KEGG ID of Ligand>


> <ZINC ID of Ligand>
ZINC29314335

> <Number of Protein Chains in Target (>1 implies a multichain complex)>
1

> <BindingDB Target Chain Sequence>
MAAQKNNAPKEYGADSITILEGLEAVRKRPGMYIGSTGERGLHHLIWEVVDNAVDEAMAGFATRVDVKIHADGSVEVRDDGRGIPVEMHATGMPTIDVVMTQLHAGGKFDGETYAVSGGLHGVGVSVVNALSTRLEATVLRDGYEWFQYYDRSVPGKLKQGGETKETGTTIRFWADPEIFETTDYNFETVARRLQEMAFLNKGLTIELTDERVTAEEVVDDVVKDTAEAPKTADEKAAEATGPSKVKHRVFHYPGGLVDYVKHINRTKTPIQQSIIDFDGKGPGHEVEIAMQWNAGYSESVHTFANTINTHEGGTHEEGFRAALTSVVNRYAKDKKLLKDKDPNLTGDDIREGLAAVISVKVAEPQFEGQTKTKLGNTEVKSFVQKICNEQLQHWFEANPAEAKTVVNKAVSSAQARIAARKARELVRRKSATDIGGLPGKLADCRSTDPSKSELYVVEGDSAGGSAKSGRDSMFQAILPLRGKIINVEKARIDRVLKNTEVQSIITALGTGIHDEFDISKLRYHKIVLMADADVDGQHISTLLLTLLFRFMKPLVENGHIFLAQPPLYKLKWQRSEPEFAYSDRERDGLLEAGRAAGKKINVDDGIQRYKGLGEMDAKELWETTMDPSVRVLRQVTLDDAAAADELFSILMGEDVEARRSFITRNAKDVRFLDV

> <PDB ID(s) of Target Chain>
4BAE

> <UniProt (SwissProt) Recommended Name of Target Chain>
DNA gyrase subunit B

> <UniProt (SwissProt) Entry Name of Target Chain>
GYRB_MYCSM

> <UniProt (SwissProt) Primary ID of Target Chain>
P0C559

> <UniProt (SwissProt) Secondary ID(s) of Target Chain>
P48355,Q59555

> <UniProt (SwissProt) Alternative ID(s) of Target Chain>


> <UniProt (TrEMBL) Submitted Name of Target Chain>


> <UniProt (TrEMBL) Entry Name of Target Chain>


> <UniProt (TrEMBL) Primary ID of Target Chain>


> <UniProt (TrEMBL) Secondary ID(s) of Target Chain>


> <UniProt (TrEMBL) Alternative ID(s) of Target Chain>


$$$$

  SciTegic04201612532D

 31 34  0  0  0  0            999 V2000
   -1.2964    1.4973    0.0000 N   0  0
   -2.6111    0.7486    0.0000 C   0  0
   -2.6111   -0.7486    0.0000 C   0  0
   -1.2964   -1.4973    0.0000 C   0  0
    0.0000   -0.7486    0.0000 C   0  0
    1.2964   -1.4973    0.0000 C   0  0
    2.5929   -0.7486    0.0000 C   0  0
    2.5929    0.7486    0.0000 C   0  0
    1.2964    1.4973    0.0000 C   0  0
    0.0000    0.7486    0.0000 C   0  0
   -3.9122   -1.4966    0.0000 C   0  0
   -4.9506   -0.8952    0.0000 O   0  0
   -1.2907   -2.9981    0.0000 N   0  0
   -2.5870   -3.7544    0.0000 C   0  0
   -2.5835   -5.2544    0.0000 C   0  0
   -3.8807   -6.0076    0.0000 C   0  0
   -5.1815   -5.2608    0.0000 C   0  0
   -5.1852   -3.7608    0.0000 C   0  0
   -3.8880   -3.0076    0.0000 C   0  0
   -6.4810   -6.0117    0.0000 N   0  0
   -7.7815   -5.2626    0.0000 C   0  0
   -9.0810   -6.0135    0.0000 C   0  0
  -10.3815   -5.2644    0.0000 C   0  0
  -14.2755   -7.5217    0.0000 O   0  0
  -14.2791   -6.0217    0.0000 C   0  0
  -12.9819   -5.2686    0.0000 C   0  0
  -11.6810   -6.0154    0.0000 N   0  0
  -11.6774   -7.5154    0.0000 C   0  0
  -12.9746   -8.2686    0.0000 C   0  0
   -3.9138   -2.4966    0.0000 O   0  0
    3.6321   -1.3486    0.0000 F   0  0
  1  2  2  0
  2  3  1  0
  3  4  2  0
  4  5  1  0
  5  6  2  0
  6  7  1  0
  7  8  2  0
  8  9  1  0
  9 10  2  0
  1 10  1  0
  5 10  1  0
 11 12  2  0
  3 11  1  0
 14 15  1  0
 15 16  2  0
 16 17  1  0
 17 18  2  0
 18 19  1  0
 14 19  2  0
 21 22  1  0
 22 23  1  0
 20 21  1  0
 24 25  1  0
 25 26  1  0
 26 27  1  0
 27 28  1  0
 28 29  1  0
 24 29  1  0
 23 27  1  0
 17 20  1  0
 13 14  1  0
  4 13  1  0
 11 30  1  0
  7 31  1  0
M  END
> <From> 
www.bindingDB.org

> <BindingDB Reactant_set_id>
50426756

> <Ligand InChI>
InChI=1S/C23H25FN4O3/c24-16-2-7-21-19(14-16)22(20(15-26-21)23(29)30)27-18-5-3-17(4-6-18)25-8-1-9-28-10-12-31-13-11-28/h2-7,14-15,25H,1,8-13H2,(H,26,27)(H,29,30)

> <Ligand InChI Key>
HAVLBPZXTFNRAU-UHFFFAOYSA-N

> <BindingDB MonomerID>
50126180

> <BindingDB Ligand Name>
CHEMBL3628520

> <Target Name Assigned by Curator or DataSource>
DNA gyrase subunit B

> <Target Source Organism According to Curator or DataSource>


> <Ki (nM)>


> <IC50 (nM)>
 14980

> <Kd (nM)>


> <EC50 (nM)>


> <kon (M-1-s-1)>


> <koff (s-1)>


> <pH>


> <Temp C>


> <Curation/DataSource>
ChEMBL

> <Article DOI>
10.1016/j.ejmech.2015.06.032

> <PMID>
26318054

> <PubChem AID>


> <Patent Number>


> <Authors>
Medapi, B; Suryadevara, P; Renuka, J; Sridevi, JP; Yogeeswari, P; Sriram, D

> <Institution>
Birla Institute of Technology&amp;Science

> <Link to Ligand in BindingDB>
http://www.bindingdb.org/bind/chemsearch/marvin/MolStructure.jsp?monomerid=50126180

> <Link to Ligand-Target Pair in BindingDB>
http://www.bindingdb.org/jsp/dbsearch/PrimarySearch_ki.jsp?energyterm=kJ/mole&tag=pol&polymerid=50006452&target=DNA+gyrase+subunit+B&column=ki&startPg=0&Increment=50&submit=Search

> <Link to Ligand-Target Pair in BindingDB>
http://www.bindingdb.org/jsp/dbsearch/PrimarySearch_ki.jsp?energyterm=kJ/mole&tag=r21&monomerid=50126180&enzyme=DNA+gyrase+subunit+B&column=ki&startPg=0&Increment=50&submit=Search

> <Ligand HET ID in PDB>


> <PDB ID(s) for Ligand-Target Complex>


> <PubChem CID>
122193521

> <PubChem SID>
321902387

> <ChEBI ID of Ligand>


> <ChEMBL ID of Ligand>


> <DrugBank ID of Ligand>


> <IUPHAR_GRAC ID of Ligand>


> <KEGG ID of Ligand>


> <ZINC ID of Ligand>


> <Number of Protein Chains in Target (>1 implies a multichain complex)>
1

> <BindingDB Target Chain Sequence>
MAAQKNNAPKEYGADSITILEGLEAVRKRPGMYIGSTGERGLHHLIWEVVDNAVDEAMAGFATRVDVKIHADGSVEVRDDGRGIPVEMHATGMPTIDVVMTQLHAGGKFDGETYAVSGGLHGVGVSVVNALSTRLEATVLRDGYEWFQYYDRSVPGKLKQGGETKETGTTIRFWADPEIFETTDYNFETVARRLQEMAFLNKGLTIELTDERVTAEEVVDDVVKDTAEAPKTADEKAAEATGPSKVKHRVFHYPGGLVDYVKHINRTKTPIQQSIIDFDGKGPGHEVEIAMQWNAGYSESVHTFANTINTHEGGTHEEGFRAALTSVVNRYAKDKKLLKDKDPNLTGDDIREGLAAVISVKVAEPQFEGQTKTKLGNTEVKSFVQKICNEQLQHWFEANPAEAKTVVNKAVSSAQARIAARKARELVRRKSATDIGGLPGKLADCRSTDPSKSELYVVEGDSAGGSAKSGRDSMFQAILPLRGKIINVEKARIDRVLKNTEVQSIITALGTGIHDEFDISKLRYHKIVLMADADVDGQHISTLLLTLLFRFMKPLVENGHIFLAQPPLYKLKWQRSEPEFAYSDRERDGLLEAGRAAGKKINVDDGIQRYKGLGEMDAKELWETTMDPSVRVLRQVTLDDAAAADELFSILMGEDVEARRSFITRNAKDVRFLDV

> <PDB ID(s) of Target Chain>
4BAE

> <UniProt (SwissProt) Recommended Name of Target Chain>
DNA gyrase subunit B

> <UniProt (SwissProt) Entry Name of Target Chain>
GYRB_MYCSM

> <UniProt (SwissProt) Primary ID of Target Chain>
P0C559

> <UniProt (SwissProt) Secondary ID(s) of Target Chain>
P48355,Q59555

> <UniProt (SwissProt) Alternative ID(s) of Target Chain>


> <UniProt (TrEMBL) Submitted Name of Target Chain>


> <UniProt (TrEMBL) Entry Name of Target Chain>


> <UniProt (TrEMBL) Primary ID of Target Chain>


> <UniProt (TrEMBL) Secondary ID(s) of Target Chain>


> <UniProt (TrEMBL) Alternative ID(s) of Target Chain>


$$$$

  SciTegic09081514182D

 29 32  0  0  0  0            999 V2000
   -2.6111    0.7486    0.0000 C   0  0
   -2.6111   -0.7486    0.0000 C   0  0
   -1.2964   -1.4973    0.0000 C   0  0
   -1.2964    1.4973    0.0000 C   0  0
    0.0000    0.7486    0.0000 C   0  0
    0.0000   -0.7486    0.0000 C   0  0
    1.2964   -1.4973    0.0000 N   0  0
    2.5929   -0.7486    0.0000 C   0  0
    2.5929    0.7486    0.0000 C   0  0
    1.2964    1.4973    0.0000 C   0  0
    1.2964    2.9980    0.0000 N   0  0
   -0.0014    3.7503    0.0000 C   0  0
    0.0011    5.2503    0.0000 C   0  0
    1.3014    5.9981    0.0000 C   0  0
    2.5992    5.2460    0.0000 C   0  0
    2.5967    3.7460    0.0000 C   0  0
    1.3069    7.4990    0.0000 N   0  0
    2.6090    8.2454    0.0000 C   0  0
    3.6462    7.6419    0.0000 O   0  0
    2.6145    9.7462    0.0000 N   0  0
    3.9166   10.4926    0.0000 C   0  0
    3.9243   11.9926    0.0000 C   0  0
    5.2272   12.7360    0.0000 C   0  0
    6.5224   11.9794    0.0000 C   0  0
    6.5147   10.4794    0.0000 C   0  0
    5.2119    9.7360    0.0000 C   0  0
    3.6321   -1.3486    0.0000 C   0  0
    7.5647   12.5740    0.0000 C   0  0
   -3.6486    1.3517    0.0000 F   0  0
  1  2  2  0
  2  3  1  0
  3  6  2  0
  5  4  2  0
  4  1  1  0
  5  6  1  0
  6  7  1  0
  7  8  2  0
  8  9  1  0
  9 10  2  0
 10  5  1  0
 11 12  1  0
 11 16  1  0
 12 13  1  0
 13 14  1  0
 14 15  1  0
 15 16  1  0
 10 11  1  0
 14 17  1  0
 17 18  1  0
 18 19  2  0
 18 20  1  0
 20 21  1  0
 21 22  2  0
 22 23  1  0
 23 24  2  0
 24 25  1  0
 25 26  2  0
 26 21  1  0
  8 27  1  0
 24 28  1  0
  1 29  1  0
M  END
> <From> 
www.bindingDB.org

> <BindingDB Reactant_set_id>
50303801

> <Ligand InChI>
InChI=1S/C23H25FN4O/c1-15-3-6-18(7-4-15)26-23(29)27-19-9-11-28(12-10-19)22-13-16(2)25-21-8-5-17(24)14-20(21)22/h3-8,13-14,19H,9-12H2,1-2H3,(H2,26,27,29)

> <Ligand InChI Key>
UWQGOCLEEGAGCV-UHFFFAOYSA-N

> <BindingDB MonomerID>
50067026

> <BindingDB Ligand Name>
CHEMBL3403258

> <Target Name Assigned by Curator or DataSource>
DNA gyrase subunit B

> <Target Source Organism According to Curator or DataSource>


> <Ki (nM)>


> <IC50 (nM)>
 15050

> <Kd (nM)>


> <EC50 (nM)>


> <kon (M-1-s-1)>


> <koff (s-1)>


> <pH>


> <Temp C>


> <Curation/DataSource>
ChEMBL

> <Article DOI>
10.1016/j.bmc.2015.03.004

> <PMID>
25801151

> <PubChem AID>


> <Patent Number>


> <Authors>
Medapi, B; Renuka, J; Saxena, S; Sridevi, JP; Medishetti, R; Kulkarni, P; Yogeeswari, P; Sriram, D

> <Institution>
Birla Institute of Technology&amp; Science-Pilani

> <Link to Ligand in BindingDB>
http://www.bindingdb.org/bind/chemsearch/marvin/MolStructure.jsp?monomerid=50067026

> <Link to Ligand-Target Pair in BindingDB>
http://www.bindingdb.org/jsp/dbsearch/PrimarySearch_ki.jsp?energyterm=kJ/mole&tag=pol&polymerid=50006452&target=DNA+gyrase+subunit+B&column=ki&startPg=0&Increment=50&submit=Search

> <Link to Ligand-Target Pair in BindingDB>
http://www.bindingdb.org/jsp/dbsearch/PrimarySearch_ki.jsp?energyterm=kJ/mole&tag=r21&monomerid=50067026&enzyme=DNA+gyrase+subunit+B&column=ki&startPg=0&Increment=50&submit=Search

> <Ligand HET ID in PDB>


> <PDB ID(s) for Ligand-Target Complex>


> <PubChem CID>
118729674

> <PubChem SID>
103961559

> <ChEBI ID of Ligand>


> <ChEMBL ID of Ligand>


> <DrugBank ID of Ligand>


> <IUPHAR_GRAC ID of Ligand>


> <KEGG ID of Ligand>


> <ZINC ID of Ligand>
ZINC33980639

> <Number of Protein Chains in Target (>1 implies a multichain complex)>
1

> <BindingDB Target Chain Sequence>
MAAQKNNAPKEYGADSITILEGLEAVRKRPGMYIGSTGERGLHHLIWEVVDNAVDEAMAGFATRVDVKIHADGSVEVRDDGRGIPVEMHATGMPTIDVVMTQLHAGGKFDGETYAVSGGLHGVGVSVVNALSTRLEATVLRDGYEWFQYYDRSVPGKLKQGGETKETGTTIRFWADPEIFETTDYNFETVARRLQEMAFLNKGLTIELTDERVTAEEVVDDVVKDTAEAPKTADEKAAEATGPSKVKHRVFHYPGGLVDYVKHINRTKTPIQQSIIDFDGKGPGHEVEIAMQWNAGYSESVHTFANTINTHEGGTHEEGFRAALTSVVNRYAKDKKLLKDKDPNLTGDDIREGLAAVISVKVAEPQFEGQTKTKLGNTEVKSFVQKICNEQLQHWFEANPAEAKTVVNKAVSSAQARIAARKARELVRRKSATDIGGLPGKLADCRSTDPSKSELYVVEGDSAGGSAKSGRDSMFQAILPLRGKIINVEKARIDRVLKNTEVQSIITALGTGIHDEFDISKLRYHKIVLMADADVDGQHISTLLLTLLFRFMKPLVENGHIFLAQPPLYKLKWQRSEPEFAYSDRERDGLLEAGRAAGKKINVDDGIQRYKGLGEMDAKELWETTMDPSVRVLRQVTLDDAAAADELFSILMGEDVEARRSFITRNAKDVRFLDV

> <PDB ID(s) of Target Chain>
4BAE

> <UniProt (SwissProt) Recommended Name of Target Chain>
DNA gyrase subunit B

> <UniProt (SwissProt) Entry Name of Target Chain>
GYRB_MYCSM

> <UniProt (SwissProt) Primary ID of Target Chain>
P0C559

> <UniProt (SwissProt) Secondary ID(s) of Target Chain>
P48355,Q59555

> <UniProt (SwissProt) Alternative ID(s) of Target Chain>


> <UniProt (TrEMBL) Submitted Name of Target Chain>


> <UniProt (TrEMBL) Entry Name of Target Chain>


> <UniProt (TrEMBL) Primary ID of Target Chain>


> <UniProt (TrEMBL) Secondary ID(s) of Target Chain>


> <UniProt (TrEMBL) Alternative ID(s) of Target Chain>


$$$$

  Mrv0541 03201611132D          

 29 32  0  0  0  0            999 V2000
   20.7356   -9.7882    0.0000 O   0  0  0  0  0  0  0  0  0  0  0  0
   21.2204   -9.1229    0.0000 C   0  0  0  0  0  0  0  0  0  0  0  0
   20.7356   -8.4574    0.0000 C   0  0  0  0  0  0  0  0  0  0  0  0
   19.9510   -8.7104    0.0000 C   0  0  0  0  0  0  0  0  0  0  0  0
   19.9510   -9.5354    0.0000 C   0  0  0  0  0  0  0  0  0  0  0  0
   19.2352   -8.2979    0.0000 C   0  0  0  0  0  0  0  0  0  0  0  0
   18.5193   -8.7104    0.0000 C   0  0  0  0  0  0  0  0  0  0  0  0
   18.5193   -9.5354    0.0000 C   0  0  0  0  0  0  0  0  0  0  0  0
   19.2352   -9.9479    0.0000 C   0  0  0  0  0  0  0  0  0  0  0  0
   22.0454   -9.1229    0.0000 C   0  0  0  0  0  0  0  0  0  0  0  0
   22.4579   -9.8387    0.0000 O   0  0  0  0  0  0  0  0  0  0  0  0
   22.4579   -8.4070    0.0000 O   0  0  0  0  0  0  0  0  0  0  0  0
   17.8077   -8.2979    0.0000 N   0  0  0  0  0  0  0  0  0  0  0  0
   17.0918   -8.7104    0.0000 C   0  0  0  0  0  0  0  0  0  0  0  0
   16.3759   -8.2979    0.0000 C   0  0  0  0  0  0  0  0  0  0  0  0
   16.3759   -7.4729    0.0000 N   0  0  0  0  0  0  0  0  0  0  0  0
   17.0918   -7.0604    0.0000 C   0  0  0  0  0  0  0  0  0  0  0  0
   17.8077   -7.4729    0.0000 C   0  0  0  0  0  0  0  0  0  0  0  0
   15.6642   -7.0604    0.0000 C   0  0  0  0  0  0  0  0  0  0  0  0
   14.9483   -7.4729    0.0000 N   0  0  0  0  0  0  0  0  0  0  0  0
   15.6642   -6.2354    0.0000 S   0  0  0  0  0  0  0  0  0  0  0  0
   14.2325   -7.0604    0.0000 C   0  0  0  0  0  0  0  0  0  0  0  0
   13.5166   -7.4729    0.0000 C   0  0  0  0  0  0  0  0  0  0  0  0
   12.8050   -7.0604    0.0000 C   0  0  0  0  0  0  0  0  0  0  0  0
   12.8050   -6.2354    0.0000 C   0  0  0  0  0  0  0  0  0  0  0  0
   13.5166   -5.8229    0.0000 C   0  0  0  0  0  0  0  0  0  0  0  0
   14.2325   -6.2354    0.0000 C   0  0  0  0  0  0  0  0  0  0  0  0
   23.2828   -8.4070    0.0000 C   0  0  0  0  0  0  0  0  0  0  0  0
   23.6953   -7.6953    0.0000 C   0  0  0  0  0  0  0  0  0  0  0  0
  1  2  4  0  0  0  0
  2  3  4  0  0  0  0
  3  4  4  0  0  0  0
  4  5  4  0  0  0  0
  1  5  4  0  0  0  0
  6  7  4  0  0  0  0
  7  8  4  0  0  0  0
  8  9  4  0  0  0  0
  5  9  4  0  0  0  0
  4  6  4  0  0  0  0
 10 11  2  0  0  0  0
 10 12  1  0  0  0  0
  2 10  1  0  0  0  0
 13 14  1  0  0  0  0
 14 15  1  0  0  0  0
 15 16  1  0  0  0  0
 16 17  1  0  0  0  0
 17 18  1  0  0  0  0
 13 18  1  0  0  0  0
 19 20  1  0  0  0  0
 19 21  2  0  0  0  0
 22 23  4  0  0  0  0
 23 24  4  0  0  0  0
 24 25  4  0  0  0  0
 25 26  4  0  0  0  0
 26 27  4  0  0  0  0
 22 27  4  0  0  0  0
 20 22  1  0  0  0  0
 16 19  1  0  0  0  0
  7 13  1  0  0  0  0
 28 29  1  0  0  0  0
 12 28  1  0  0  0  0
M  END
> <From> 
www.bindingDB.org

> <BindingDB Reactant_set_id>
50254204

> <Ligand InChI>
InChI=1S/C22H23N3O3S/c1-2-27-21(26)20-15-16-14-18(8-9-19(16)28-20)24-10-12-25(13-11-24)22(29)23-17-6-4-3-5-7-17/h3-9,14-15H,2,10-13H2,1H3,(H,23,29)

> <Ligand InChI Key>
XJDBQBUNNKLDLH-UHFFFAOYSA-N

> <BindingDB MonomerID>
50037092

> <BindingDB Ligand Name>
CHEMBL3355789

> <Target Name Assigned by Curator or DataSource>
DNA gyrase subunit B

> <Target Source Organism According to Curator or DataSource>


> <Ki (nM)>


> <IC50 (nM)>
 15630

> <Kd (nM)>


> <EC50 (nM)>


> <kon (M-1-s-1)>


> <koff (s-1)>


> <pH>


> <Temp C>


> <Curation/DataSource>
ChEMBL

> <Article DOI>
10.1016/j.bmc.2014.10.016

> <PMID>
25456076

> <PubChem AID>


> <Patent Number>


> <Authors>
Reddy, KI; Srihari, K; Renuka, J; Sree, KS; Chuppala, A; Jeankumar, VU; Sridevi, JP; Babu, KS; Yogeeswari, P; Sriram, D

> <Institution>
TBA

> <Link to Ligand in BindingDB>
http://www.bindingdb.org/bind/chemsearch/marvin/MolStructure.jsp?monomerid=50037092

> <Link to Ligand-Target Pair in BindingDB>
http://www.bindingdb.org/jsp/dbsearch/PrimarySearch_ki.jsp?energyterm=kJ/mole&tag=pol&polymerid=50006452&target=DNA+gyrase+subunit+B&column=ki&startPg=0&Increment=50&submit=Search

> <Link to Ligand-Target Pair in BindingDB>
http://www.bindingdb.org/jsp/dbsearch/PrimarySearch_ki.jsp?energyterm=kJ/mole&tag=r21&monomerid=50037092&enzyme=DNA+gyrase+subunit+B&column=ki&startPg=0&Increment=50&submit=Search

> <Ligand HET ID in PDB>


> <PDB ID(s) for Ligand-Target Complex>


> <PubChem CID>
118721089

> <PubChem SID>
313067064

> <ChEBI ID of Ligand>


> <ChEMBL ID of Ligand>


> <DrugBank ID of Ligand>


> <IUPHAR_GRAC ID of Ligand>


> <KEGG ID of Ligand>


> <ZINC ID of Ligand>


> <Number of Protein Chains in Target (>1 implies a multichain complex)>
1

> <BindingDB Target Chain Sequence>
MAAQKNNAPKEYGADSITILEGLEAVRKRPGMYIGSTGERGLHHLIWEVVDNAVDEAMAGFATRVDVKIHADGSVEVRDDGRGIPVEMHATGMPTIDVVMTQLHAGGKFDGETYAVSGGLHGVGVSVVNALSTRLEATVLRDGYEWFQYYDRSVPGKLKQGGETKETGTTIRFWADPEIFETTDYNFETVARRLQEMAFLNKGLTIELTDERVTAEEVVDDVVKDTAEAPKTADEKAAEATGPSKVKHRVFHYPGGLVDYVKHINRTKTPIQQSIIDFDGKGPGHEVEIAMQWNAGYSESVHTFANTINTHEGGTHEEGFRAALTSVVNRYAKDKKLLKDKDPNLTGDDIREGLAAVISVKVAEPQFEGQTKTKLGNTEVKSFVQKICNEQLQHWFEANPAEAKTVVNKAVSSAQARIAARKARELVRRKSATDIGGLPGKLADCRSTDPSKSELYVVEGDSAGGSAKSGRDSMFQAILPLRGKIINVEKARIDRVLKNTEVQSIITALGTGIHDEFDISKLRYHKIVLMADADVDGQHISTLLLTLLFRFMKPLVENGHIFLAQPPLYKLKWQRSEPEFAYSDRERDGLLEAGRAAGKKINVDDGIQRYKGLGEMDAKELWETTMDPSVRVLRQVTLDDAAAADELFSILMGEDVEARRSFITRNAKDVRFLDV

> <PDB ID(s) of Target Chain>
4BAE

> <UniProt (SwissProt) Recommended Name of Target Chain>
DNA gyrase subunit B

> <UniProt (SwissProt) Entry Name of Target Chain>
GYRB_MYCSM

> <UniProt (SwissProt) Primary ID of Target Chain>
P0C559

> <UniProt (SwissProt) Secondary ID(s) of Target Chain>
P48355,Q59555

> <UniProt (SwissProt) Alternative ID(s) of Target Chain>


> <UniProt (TrEMBL) Submitted Name of Target Chain>


> <UniProt (TrEMBL) Entry Name of Target Chain>


> <UniProt (TrEMBL) Primary ID of Target Chain>


> <UniProt (TrEMBL) Secondary ID(s) of Target Chain>


> <UniProt (TrEMBL) Alternative ID(s) of Target Chain>


$$$$

  SciTegic10231713562D

 31 34  0  0  0  0            999 V2000
   31.6214  -19.3195    0.0000 C   0  0
   31.6203  -20.1391    0.0000 C   0  0
   32.3283  -20.5480    0.0000 C   0  0
   32.3265  -18.9107    0.0000 C   0  0
   33.0351  -19.3159    0.0000 C   0  0
   33.0400  -20.1391    0.0000 C   0  0
   33.8243  -20.3889    0.0000 N   0  0
   34.3043  -19.7201    0.0000 C   0  0
   33.8165  -19.0570    0.0000 C   0  0
   34.0645  -18.2784    0.0000 O   0  0
   35.1215  -19.7152    0.0000 O   0  0
   34.0814  -21.1646    0.0000 C   0  0
   33.5381  -21.7751    0.0000 C   0  0
   33.7952  -22.5508    0.0000 N   0  0
   33.2548  -23.1596    0.0000 C   0  0
   33.5088  -23.9325    0.0000 C   0  0
   34.3086  -24.1020    0.0000 N   0  0
   34.8540  -23.4921    0.0000 C   0  0
   34.5995  -22.7128    0.0000 C   0  0
   34.5627  -24.8786    0.0000 N   0  0
   35.3624  -25.0469    0.0000 C   0  0
   35.9080  -24.4385    0.0000 C   0  0
   36.7068  -24.6105    0.0000 C   0  0
   37.2521  -24.0029    0.0000 C   0  0
   36.9981  -23.2252    0.0000 C   0  0
   36.1937  -23.0587    0.0000 C   0  0
   35.6519  -23.6676    0.0000 C   0  0
   36.9589  -25.3878    0.0000 Cl  0  0
   37.5429  -22.6161    0.0000 Cl  0  0
   30.9136  -18.9111    0.0000 O   0  0
   30.9134  -18.0939    0.0000 C   0  0
  1  2  2  0
  2  3  1  0
  3  6  2  0
  5  4  2  0
  4  1  1  0
  5  6  1  0
  6  7  1  0
  7  8  1  0
  8  9  1  0
  9  5  1  0
  9 10  2  0
  8 11  2  0
  7 12  1  0
 12 13  1  0
 13 14  1  0
 14 15  1  0
 14 19  1  0
 15 16  1  0
 16 17  1  0
 17 18  1  0
 18 19  1  0
 17 20  1  0
 20 21  1  0
 21 22  1  0
 22 23  2  0
 23 24  1  0
 24 25  2  0
 25 26  1  0
 26 27  2  0
 27 22  1  0
 23 28  1  0
 25 29  1  0
  1 30  1  0
 30 31  1  0
M  END
> <From> 
www.bindingDB.org

> <BindingDB Reactant_set_id>
50543822

> <Ligand InChI>
InChI=1S/C22H24Cl2N4O3/c1-31-17-4-5-20-18(13-17)21(29)22(30)28(20)11-8-26-6-9-27(10-7-26)25-14-15-2-3-16(23)12-19(15)24/h2-5,12-13,25H,6-11,14H2,1H3

> <Ligand InChI Key>
SEHQXQZEQDTBIG-UHFFFAOYSA-N

> <BindingDB MonomerID>
50208289

> <BindingDB Ligand Name>
CHEMBL3884153

> <Target Name Assigned by Curator or DataSource>
DNA gyrase subunit B

> <Target Source Organism According to Curator or DataSource>


> <Ki (nM)>


> <IC50 (nM)>
 15800

> <Kd (nM)>


> <EC50 (nM)>


> <kon (M-1-s-1)>


> <koff (s-1)>


> <pH>


> <Temp C>


> <Curation/DataSource>
ChEMBL

> <Article DOI>
10.1016/j.ejmech.2016.08.034

> <PMID>
27569197

> <PubChem AID>


> <Patent Number>


> <Authors>
Chaudhari, K; Surana, S; Jain, P; Patel, HM

> <Institution>
R. C. Patel Institute of Pharmaceutical Education and Research

> <Link to Ligand in BindingDB>
http://www.bindingdb.org/bind/chemsearch/marvin/MolStructure.jsp?monomerid=50208289

> <Link to Ligand-Target Pair in BindingDB>
http://www.bindingdb.org/jsp/dbsearch/PrimarySearch_ki.jsp?energyterm=kJ/mole&tag=pol&polymerid=50006452&target=DNA+gyrase+subunit+B&column=ki&startPg=0&Increment=50&submit=Search

> <Link to Ligand-Target Pair in BindingDB>
http://www.bindingdb.org/jsp/dbsearch/PrimarySearch_ki.jsp?energyterm=kJ/mole&tag=r21&monomerid=50208289&enzyme=DNA+gyrase+subunit+B&column=ki&startPg=0&Increment=50&submit=Search

> <Ligand HET ID in PDB>


> <PDB ID(s) for Ligand-Target Complex>


> <PubChem CID>
134130917

> <PubChem SID>
375981982

> <ChEBI ID of Ligand>


> <ChEMBL ID of Ligand>


> <DrugBank ID of Ligand>


> <IUPHAR_GRAC ID of Ligand>


> <KEGG ID of Ligand>


> <ZINC ID of Ligand>


> <Number of Protein Chains in Target (>1 implies a multichain complex)>
1

> <BindingDB Target Chain Sequence>
MAAQKNNAPKEYGADSITILEGLEAVRKRPGMYIGSTGERGLHHLIWEVVDNAVDEAMAGFATRVDVKIHADGSVEVRDDGRGIPVEMHATGMPTIDVVMTQLHAGGKFDGETYAVSGGLHGVGVSVVNALSTRLEATVLRDGYEWFQYYDRSVPGKLKQGGETKETGTTIRFWADPEIFETTDYNFETVARRLQEMAFLNKGLTIELTDERVTAEEVVDDVVKDTAEAPKTADEKAAEATGPSKVKHRVFHYPGGLVDYVKHINRTKTPIQQSIIDFDGKGPGHEVEIAMQWNAGYSESVHTFANTINTHEGGTHEEGFRAALTSVVNRYAKDKKLLKDKDPNLTGDDIREGLAAVISVKVAEPQFEGQTKTKLGNTEVKSFVQKICNEQLQHWFEANPAEAKTVVNKAVSSAQARIAARKARELVRRKSATDIGGLPGKLADCRSTDPSKSELYVVEGDSAGGSAKSGRDSMFQAILPLRGKIINVEKARIDRVLKNTEVQSIITALGTGIHDEFDISKLRYHKIVLMADADVDGQHISTLLLTLLFRFMKPLVENGHIFLAQPPLYKLKWQRSEPEFAYSDRERDGLLEAGRAAGKKINVDDGIQRYKGLGEMDAKELWETTMDPSVRVLRQVTLDDAAAADELFSILMGEDVEARRSFITRNAKDVRFLDV

> <PDB ID(s) of Target Chain>
4BAE

> <UniProt (SwissProt) Recommended Name of Target Chain>
DNA gyrase subunit B

> <UniProt (SwissProt) Entry Name of Target Chain>
GYRB_MYCSM

> <UniProt (SwissProt) Primary ID of Target Chain>
P0C559

> <UniProt (SwissProt) Secondary ID(s) of Target Chain>
P48355,Q59555

> <UniProt (SwissProt) Alternative ID(s) of Target Chain>


> <UniProt (TrEMBL) Submitted Name of Target Chain>


> <UniProt (TrEMBL) Entry Name of Target Chain>


> <UniProt (TrEMBL) Primary ID of Target Chain>


> <UniProt (TrEMBL) Secondary ID(s) of Target Chain>


> <UniProt (TrEMBL) Alternative ID(s) of Target Chain>


$$$$

  SciTegic04201612532D

 36 39  0  0  0  0            999 V2000
   -1.2964    1.4973    0.0000 N   0  0
   -2.6111    0.7486    0.0000 C   0  0
   -2.6111   -0.7486    0.0000 C   0  0
   -1.2964   -1.4973    0.0000 C   0  0
    0.0000   -0.7486    0.0000 C   0  0
    1.2964   -1.4973    0.0000 C   0  0
    2.5929   -0.7486    0.0000 C   0  0
    2.5929    0.7486    0.0000 C   0  0
    1.2964    1.4973    0.0000 C   0  0
    0.0000    0.7486    0.0000 C   0  0
   -3.9122   -1.4966    0.0000 C   0  0
   -3.9138   -2.4966    0.0000 O   0  0
   -5.2109   -0.7445    0.0000 O   0  0
   -1.2907   -2.9981    0.0000 N   0  0
   -2.5870   -3.7544    0.0000 C   0  0
   -2.5835   -5.2544    0.0000 C   0  0
   -3.8807   -6.0076    0.0000 C   0  0
   -5.1815   -5.2608    0.0000 C   0  0
   -5.1852   -3.7608    0.0000 C   0  0
   -3.8880   -3.0076    0.0000 C   0  0
   -6.4810   -6.0117    0.0000 O   0  0
   -7.7815   -5.2626    0.0000 C   0  0
   -9.0810   -6.0135    0.0000 C   0  0
  -10.3815   -5.2644    0.0000 C   0  0
  -14.2755   -7.5217    0.0000 N   0  0
  -14.2791   -6.0217    0.0000 C   0  0
  -12.9819   -5.2686    0.0000 C   0  0
  -11.6810   -6.0154    0.0000 N   0  0
  -11.6774   -7.5154    0.0000 C   0  0
  -12.9746   -8.2686    0.0000 C   0  0
   -6.5121   -1.4924    0.0000 C   0  0
   -7.5506   -0.8910    0.0000 C   0  0
  -15.5719   -8.2779    0.0000 C   0  0
  -15.5672   -9.4779    0.0000 C   0  0
    3.8942   -1.4964    0.0000 O   0  0
    4.9326   -0.8949    0.0000 C   0  0
  1  2  2  0
  2  3  1  0
  3  4  2  0
  4  5  1  0
  5  6  2  0
  6  7  1  0
  7  8  2  0
  8  9  1  0
  9 10  2  0
  1 10  1  0
  5 10  1  0
 11 12  2  0
 11 13  1  0
  3 11  1  0
 15 16  1  0
 16 17  2  0
 17 18  1  0
 18 19  2  0
 19 20  1  0
 15 20  2  0
 22 23  1  0
 23 24  1  0
 21 22  1  0
 25 26  1  0
 26 27  1  0
 27 28  1  0
 28 29  1  0
 29 30  1  0
 25 30  1  0
 24 28  1  0
 18 21  1  0
 14 15  1  0
  4 14  1  0
 31 32  1  0
 13 31  1  0
 25 33  1  0
 33 34  1  0
 35 36  1  0
  7 35  1  0
M  END
> <From> 
www.bindingDB.org

> <BindingDB Reactant_set_id>
50426785

> <Ligand InChI>
InChI=1S/C28H36N4O4/c1-4-31-14-16-32(17-15-31)13-6-18-36-22-9-7-21(8-10-22)30-27-24-19-23(34-3)11-12-26(24)29-20-25(27)28(33)35-5-2/h7-12,19-20H,4-6,13-18H2,1-3H3,(H,29,30)

> <Ligand InChI Key>
PXYFETYOHQRSHY-UHFFFAOYSA-N

> <BindingDB MonomerID>
50126832

> <BindingDB Ligand Name>
CHEMBL3628356

> <Target Name Assigned by Curator or DataSource>
DNA gyrase subunit B

> <Target Source Organism According to Curator or DataSource>


> <Ki (nM)>


> <IC50 (nM)>
 15920

> <Kd (nM)>


> <EC50 (nM)>


> <kon (M-1-s-1)>


> <koff (s-1)>


> <pH>


> <Temp C>


> <Curation/DataSource>
ChEMBL

> <Article DOI>
10.1016/j.ejmech.2015.06.032

> <PMID>
26318054

> <PubChem AID>


> <Patent Number>


> <Authors>
Medapi, B; Suryadevara, P; Renuka, J; Sridevi, JP; Yogeeswari, P; Sriram, D

> <Institution>
Birla Institute of Technology&amp;Science

> <Link to Ligand in BindingDB>
http://www.bindingdb.org/bind/chemsearch/marvin/MolStructure.jsp?monomerid=50126832

> <Link to Ligand-Target Pair in BindingDB>
http://www.bindingdb.org/jsp/dbsearch/PrimarySearch_ki.jsp?energyterm=kJ/mole&tag=pol&polymerid=50006452&target=DNA+gyrase+subunit+B&column=ki&startPg=0&Increment=50&submit=Search

> <Link to Ligand-Target Pair in BindingDB>
http://www.bindingdb.org/jsp/dbsearch/PrimarySearch_ki.jsp?energyterm=kJ/mole&tag=r21&monomerid=50126832&enzyme=DNA+gyrase+subunit+B&column=ki&startPg=0&Increment=50&submit=Search

> <Ligand HET ID in PDB>


> <PDB ID(s) for Ligand-Target Complex>


> <PubChem CID>
122193397

> <PubChem SID>
104018900

> <ChEBI ID of Ligand>


> <ChEMBL ID of Ligand>
CHEMBL36450

> <DrugBank ID of Ligand>


> <IUPHAR_GRAC ID of Ligand>
6039

> <KEGG ID of Ligand>


> <ZINC ID of Ligand>
ZINC00020049

> <Number of Protein Chains in Target (>1 implies a multichain complex)>
1

> <BindingDB Target Chain Sequence>
MAAQKNNAPKEYGADSITILEGLEAVRKRPGMYIGSTGERGLHHLIWEVVDNAVDEAMAGFATRVDVKIHADGSVEVRDDGRGIPVEMHATGMPTIDVVMTQLHAGGKFDGETYAVSGGLHGVGVSVVNALSTRLEATVLRDGYEWFQYYDRSVPGKLKQGGETKETGTTIRFWADPEIFETTDYNFETVARRLQEMAFLNKGLTIELTDERVTAEEVVDDVVKDTAEAPKTADEKAAEATGPSKVKHRVFHYPGGLVDYVKHINRTKTPIQQSIIDFDGKGPGHEVEIAMQWNAGYSESVHTFANTINTHEGGTHEEGFRAALTSVVNRYAKDKKLLKDKDPNLTGDDIREGLAAVISVKVAEPQFEGQTKTKLGNTEVKSFVQKICNEQLQHWFEANPAEAKTVVNKAVSSAQARIAARKARELVRRKSATDIGGLPGKLADCRSTDPSKSELYVVEGDSAGGSAKSGRDSMFQAILPLRGKIINVEKARIDRVLKNTEVQSIITALGTGIHDEFDISKLRYHKIVLMADADVDGQHISTLLLTLLFRFMKPLVENGHIFLAQPPLYKLKWQRSEPEFAYSDRERDGLLEAGRAAGKKINVDDGIQRYKGLGEMDAKELWETTMDPSVRVLRQVTLDDAAAADELFSILMGEDVEARRSFITRNAKDVRFLDV

> <PDB ID(s) of Target Chain>
4BAE

> <UniProt (SwissProt) Recommended Name of Target Chain>
DNA gyrase subunit B

> <UniProt (SwissProt) Entry Name of Target Chain>
GYRB_MYCSM

> <UniProt (SwissProt) Primary ID of Target Chain>
P0C559

> <UniProt (SwissProt) Secondary ID(s) of Target Chain>
P48355,Q59555

> <UniProt (SwissProt) Alternative ID(s) of Target Chain>


> <UniProt (TrEMBL) Submitted Name of Target Chain>


> <UniProt (TrEMBL) Entry Name of Target Chain>


> <UniProt (TrEMBL) Primary ID of Target Chain>


> <UniProt (TrEMBL) Secondary ID(s) of Target Chain>


> <UniProt (TrEMBL) Alternative ID(s) of Target Chain>


$$$$

  SciTegic12201719542D

 27 30  0  0  0  0            999 V2000
    3.5303  -15.2495    0.0000 N   0  0
    2.8169  -15.6474    0.0000 C   0  0
    2.8040  -16.4645    0.0000 C   0  0
    3.5086  -16.8836    0.0000 N   0  0
    4.2220  -16.4858    0.0000 C   0  0
    4.2308  -15.6687    0.0000 C   0  0
    3.5391  -14.4324    0.0000 C   0  0
    4.2525  -14.0345    0.0000 N   0  0
    2.8387  -14.0132    0.0000 O   0  0
    4.2655  -13.2175    0.0000 C   0  0
    4.9789  -12.8155    0.0000 C   0  0
    4.9918  -11.9984    0.0000 C   0  0
    4.2872  -11.5833    0.0000 C   0  0
    3.5738  -11.9812    0.0000 C   0  0
    3.5650  -12.7983    0.0000 C   0  0
    3.4739  -19.3349    0.0000 N   0  0
    4.1873  -18.9370    0.0000 C   0  0
    4.1961  -18.1199    0.0000 C   0  0
    3.4956  -17.7007    0.0000 C   0  0
    2.7822  -18.0986    0.0000 C   0  0
    2.0818  -17.6794    0.0000 C   0  0
    1.3684  -18.0773    0.0000 C   0  0
    1.3554  -18.8985    0.0000 C   0  0
    2.0559  -19.3136    0.0000 C   0  0
    2.7734  -18.9157    0.0000 C   0  0
    0.6420  -19.2964    0.0000 Cl  0  0
    4.2969  -10.7662    0.0000 C   0  0
  1  2  1  0
  2  3  1  0
  3  4  1  0
  4  5  1  0
  5  6  1  0
  1  6  1  0
  7  8  1  0
  7  9  2  0
  1  7  1  0
 10 11  1  0
 11 12  2  0
 12 13  1  0
 13 14  2  0
 14 15  1  0
 10 15  2  0
  8 10  1  0
 16 17  2  0
 17 18  1  0
 18 19  2  0
 19 20  1  0
 20 21  2  0
 21 22  1  0
 22 23  2  0
 23 24  1  0
 24 25  2  0
 16 25  1  0
 20 25  1  0
 23 26  1  0
  4 19  1  0
 13 27  1  0
M  END
> <From> 
www.bindingDB.org

> <BindingDB Reactant_set_id>
50528071

> <Ligand InChI>
InChI=1S/C21H21ClN4O/c1-15-2-5-17(6-3-15)24-21(27)26-12-10-25(11-13-26)20-8-9-23-19-14-16(22)4-7-18(19)20/h2-9,14H,10-13H2,1H3,(H,24,27)

> <Ligand InChI Key>
LGNPHHZPALUPMO-UHFFFAOYSA-N

> <BindingDB MonomerID>
50202203

> <BindingDB Ligand Name>
CHEMBL3897352

> <Target Name Assigned by Curator or DataSource>
DNA gyrase subunit B

> <Target Source Organism According to Curator or DataSource>


> <Ki (nM)>


> <IC50 (nM)>
 16000

> <Kd (nM)>


> <EC50 (nM)>


> <kon (M-1-s-1)>


> <koff (s-1)>


> <pH>


> <Temp C>


> <Curation/DataSource>
ChEMBL

> <Article DOI>
10.1016/j.ejmech.2016.06.042

> <PMID>
27371925

> <PubChem AID>


> <Patent Number>


> <Authors>
Jeankumar, VU; Reshma, RS; Vats, R; Janupally, R; Saxena, S; Yogeeswari, P; Sriram, D

> <Institution>
Birla Institute of Technology&amp; Science-Pilani

> <Link to Ligand in BindingDB>
http://www.bindingdb.org/bind/chemsearch/marvin/MolStructure.jsp?monomerid=50202203

> <Link to Ligand-Target Pair in BindingDB>
http://www.bindingdb.org/jsp/dbsearch/PrimarySearch_ki.jsp?energyterm=kJ/mole&tag=pol&polymerid=50006452&target=DNA+gyrase+subunit+B&column=ki&startPg=0&Increment=50&submit=Search

> <Link to Ligand-Target Pair in BindingDB>
http://www.bindingdb.org/jsp/dbsearch/PrimarySearch_ki.jsp?energyterm=kJ/mole&tag=r21&monomerid=50202203&enzyme=DNA+gyrase+subunit+B&column=ki&startPg=0&Increment=50&submit=Search

> <Ligand HET ID in PDB>


> <PDB ID(s) for Ligand-Target Complex>


> <PubChem CID>
21101796

> <PubChem SID>
375979584

> <ChEBI ID of Ligand>


> <ChEMBL ID of Ligand>


> <DrugBank ID of Ligand>


> <IUPHAR_GRAC ID of Ligand>


> <KEGG ID of Ligand>


> <ZINC ID of Ligand>


> <Number of Protein Chains in Target (>1 implies a multichain complex)>
1

> <BindingDB Target Chain Sequence>
MAAQKNNAPKEYGADSITILEGLEAVRKRPGMYIGSTGERGLHHLIWEVVDNAVDEAMAGFATRVDVKIHADGSVEVRDDGRGIPVEMHATGMPTIDVVMTQLHAGGKFDGETYAVSGGLHGVGVSVVNALSTRLEATVLRDGYEWFQYYDRSVPGKLKQGGETKETGTTIRFWADPEIFETTDYNFETVARRLQEMAFLNKGLTIELTDERVTAEEVVDDVVKDTAEAPKTADEKAAEATGPSKVKHRVFHYPGGLVDYVKHINRTKTPIQQSIIDFDGKGPGHEVEIAMQWNAGYSESVHTFANTINTHEGGTHEEGFRAALTSVVNRYAKDKKLLKDKDPNLTGDDIREGLAAVISVKVAEPQFEGQTKTKLGNTEVKSFVQKICNEQLQHWFEANPAEAKTVVNKAVSSAQARIAARKARELVRRKSATDIGGLPGKLADCRSTDPSKSELYVVEGDSAGGSAKSGRDSMFQAILPLRGKIINVEKARIDRVLKNTEVQSIITALGTGIHDEFDISKLRYHKIVLMADADVDGQHISTLLLTLLFRFMKPLVENGHIFLAQPPLYKLKWQRSEPEFAYSDRERDGLLEAGRAAGKKINVDDGIQRYKGLGEMDAKELWETTMDPSVRVLRQVTLDDAAAADELFSILMGEDVEARRSFITRNAKDVRFLDV

> <PDB ID(s) of Target Chain>
4BAE

> <UniProt (SwissProt) Recommended Name of Target Chain>
DNA gyrase subunit B

> <UniProt (SwissProt) Entry Name of Target Chain>
GYRB_MYCSM

> <UniProt (SwissProt) Primary ID of Target Chain>
P0C559

> <UniProt (SwissProt) Secondary ID(s) of Target Chain>
P48355,Q59555

> <UniProt (SwissProt) Alternative ID(s) of Target Chain>


> <UniProt (TrEMBL) Submitted Name of Target Chain>


> <UniProt (TrEMBL) Entry Name of Target Chain>


> <UniProt (TrEMBL) Primary ID of Target Chain>


> <UniProt (TrEMBL) Secondary ID(s) of Target Chain>


> <UniProt (TrEMBL) Alternative ID(s) of Target Chain>


$$$$

  SciTegic12221700432D

 33 37  0  0  0  0            999 V2000
    7.0414   -5.5289    0.0000 C   0  0
    6.3360   -5.9367    0.0000 C   0  0
    7.0423   -4.7117    0.0000 O   0  0
    7.7501   -5.9382    0.0000 N   0  0
    9.2065   -5.8656    0.0000 S   0  0
    8.4596   -5.5304    0.0000 C   0  0
    8.5445   -4.7201    0.0000 N   0  0
    9.3431   -4.5502    0.0000 C   0  0
    9.7509   -5.2556    0.0000 C   0  0
   10.5681   -5.2565    0.0000 C   0  0
   10.9775   -4.5520    0.0000 C   0  0
   10.5697   -3.8425    0.0000 C   0  0
    9.7525   -3.8416    0.0000 C   0  0
   11.7947   -4.5488    0.0000 N   0  3
   12.2025   -5.2583    0.0000 O   0  0
   12.2040   -3.8443    0.0000 O   0  5
    6.3351   -6.7539    0.0000 N   0  0
    5.6256   -7.1617    0.0000 C   0  0
    5.6247   -7.9789    0.0000 C   0  0
    6.3333   -8.3883    0.0000 N   0  0
    7.0428   -7.9804    0.0000 C   0  0
    7.0437   -7.1632    0.0000 C   0  0
    6.3306  -10.8398    0.0000 N   0  0
    7.0401  -10.4320    0.0000 C   0  0
    7.0410   -9.6148    0.0000 C   0  0
    6.3324   -9.2054    0.0000 C   0  0
    5.6229   -9.6133    0.0000 C   0  0
    4.9184   -9.2039    0.0000 C   0  0
    4.2088   -9.6158    0.0000 C   0  0
    4.2079  -10.4330    0.0000 C   0  0
    4.9166  -10.8383    0.0000 C   0  0
    5.6220  -10.4304    0.0000 C   0  0
    3.5025  -10.8408    0.0000 Cl  0  0
  1  2  1  0
  1  3  2  0
  1  4  1  0
  5  6  1  0
  6  7  2  0
  7  8  1  0
  8  9  1  0
  5  9  1  0
 10 11  1  0
 11 12  2  0
 12 13  1  0
  8 13  2  0
  9 10  2  0
 14 15  2  0
 14 16  1  0
 11 14  1  0
  4  6  1  0
 17 18  1  0
 18 19  1  0
 19 20  1  0
 20 21  1  0
 21 22  1  0
 17 22  1  0
 23 24  2  0
 24 25  1  0
 25 26  2  0
 26 27  1  0
 27 28  2  0
 28 29  1  0
 29 30  2  0
 30 31  1  0
 31 32  2  0
 23 32  1  0
 27 32  1  0
 30 33  1  0
 20 26  1  0
  2 17  1  0
M  CHG  2  14   1  16  -1
M  END
> <From> 
www.bindingDB.org

> <BindingDB Reactant_set_id>
50528078

> <Ligand InChI>
InChI=1S/C22H19ClN6O3S/c23-14-1-3-16-18(11-14)24-6-5-19(16)28-9-7-27(8-10-28)13-21(30)26-22-25-17-4-2-15(29(31)32)12-20(17)33-22/h1-6,11-12H,7-10,13H2,(H,25,26,30)

> <Ligand InChI Key>
LIAUCQOAAWQYMN-UHFFFAOYSA-N

> <BindingDB MonomerID>
50202221

> <BindingDB Ligand Name>
CHEMBL3939165

> <Target Name Assigned by Curator or DataSource>
DNA gyrase subunit B

> <Target Source Organism According to Curator or DataSource>


> <Ki (nM)>


> <IC50 (nM)>
 16100

> <Kd (nM)>


> <EC50 (nM)>


> <kon (M-1-s-1)>


> <koff (s-1)>


> <pH>


> <Temp C>


> <Curation/DataSource>
ChEMBL

> <Article DOI>
10.1016/j.ejmech.2016.06.042

> <PMID>
27371925

> <PubChem AID>


> <Patent Number>


> <Authors>
Jeankumar, VU; Reshma, RS; Vats, R; Janupally, R; Saxena, S; Yogeeswari, P; Sriram, D

> <Institution>
Birla Institute of Technology&amp; Science-Pilani

> <Link to Ligand in BindingDB>
http://www.bindingdb.org/bind/chemsearch/marvin/MolStructure.jsp?monomerid=50202221

> <Link to Ligand-Target Pair in BindingDB>
http://www.bindingdb.org/jsp/dbsearch/PrimarySearch_ki.jsp?energyterm=kJ/mole&tag=pol&polymerid=50006452&target=DNA+gyrase+subunit+B&column=ki&startPg=0&Increment=50&submit=Search

> <Link to Ligand-Target Pair in BindingDB>
http://www.bindingdb.org/jsp/dbsearch/PrimarySearch_ki.jsp?energyterm=kJ/mole&tag=r21&monomerid=50202221&enzyme=DNA+gyrase+subunit+B&column=ki&startPg=0&Increment=50&submit=Search

> <Ligand HET ID in PDB>


> <PDB ID(s) for Ligand-Target Complex>


> <PubChem CID>
134149325

> <PubChem SID>
375979590

> <ChEBI ID of Ligand>


> <ChEMBL ID of Ligand>


> <DrugBank ID of Ligand>


> <IUPHAR_GRAC ID of Ligand>


> <KEGG ID of Ligand>


> <ZINC ID of Ligand>


> <Number of Protein Chains in Target (>1 implies a multichain complex)>
1

> <BindingDB Target Chain Sequence>
MAAQKNNAPKEYGADSITILEGLEAVRKRPGMYIGSTGERGLHHLIWEVVDNAVDEAMAGFATRVDVKIHADGSVEVRDDGRGIPVEMHATGMPTIDVVMTQLHAGGKFDGETYAVSGGLHGVGVSVVNALSTRLEATVLRDGYEWFQYYDRSVPGKLKQGGETKETGTTIRFWADPEIFETTDYNFETVARRLQEMAFLNKGLTIELTDERVTAEEVVDDVVKDTAEAPKTADEKAAEATGPSKVKHRVFHYPGGLVDYVKHINRTKTPIQQSIIDFDGKGPGHEVEIAMQWNAGYSESVHTFANTINTHEGGTHEEGFRAALTSVVNRYAKDKKLLKDKDPNLTGDDIREGLAAVISVKVAEPQFEGQTKTKLGNTEVKSFVQKICNEQLQHWFEANPAEAKTVVNKAVSSAQARIAARKARELVRRKSATDIGGLPGKLADCRSTDPSKSELYVVEGDSAGGSAKSGRDSMFQAILPLRGKIINVEKARIDRVLKNTEVQSIITALGTGIHDEFDISKLRYHKIVLMADADVDGQHISTLLLTLLFRFMKPLVENGHIFLAQPPLYKLKWQRSEPEFAYSDRERDGLLEAGRAAGKKINVDDGIQRYKGLGEMDAKELWETTMDPSVRVLRQVTLDDAAAADELFSILMGEDVEARRSFITRNAKDVRFLDV

> <PDB ID(s) of Target Chain>
4BAE

> <UniProt (SwissProt) Recommended Name of Target Chain>
DNA gyrase subunit B

> <UniProt (SwissProt) Entry Name of Target Chain>
GYRB_MYCSM

> <UniProt (SwissProt) Primary ID of Target Chain>
P0C559

> <UniProt (SwissProt) Secondary ID(s) of Target Chain>
P48355,Q59555

> <UniProt (SwissProt) Alternative ID(s) of Target Chain>


> <UniProt (TrEMBL) Submitted Name of Target Chain>


> <UniProt (TrEMBL) Entry Name of Target Chain>


> <UniProt (TrEMBL) Primary ID of Target Chain>


> <UniProt (TrEMBL) Secondary ID(s) of Target Chain>


> <UniProt (TrEMBL) Alternative ID(s) of Target Chain>


$$$$

  SciTegic12221706262D

 27 30  0  0  0  0            999 V2000
   11.9600   -2.8978    0.0000 C   0  0
   11.2550   -3.3135    0.0000 C   0  0
   11.9560   -2.0807    0.0000 O   0  0
   12.6690   -3.3035    0.0000 N   0  0
   13.3740   -2.8878    0.0000 C   0  0
   14.0872   -3.2935    0.0000 C   0  0
   11.2591   -4.1307    0.0000 N   0  0
   10.5541   -4.5422    0.0000 C   0  0
   10.5581   -5.3593    0.0000 C   0  0
   11.2713   -5.7650    0.0000 N   0  0
   11.9762   -5.3493    0.0000 C   0  0
   11.9722   -4.5322    0.0000 C   0  0
   11.2875   -8.2165    0.0000 N   0  0
   11.9925   -7.8008    0.0000 C   0  0
   11.9884   -6.9837    0.0000 C   0  0
   11.2753   -6.5822    0.0000 C   0  0
   10.5703   -6.9937    0.0000 C   0  0
    9.8613   -6.5880    0.0000 C   0  0
    9.1563   -7.0037    0.0000 C   0  0
    9.1603   -7.8208    0.0000 C   0  0
    9.8694   -8.2224    0.0000 C   0  0
   10.5743   -7.8108    0.0000 C   0  0
    8.4553   -8.2324    0.0000 Cl  0  0
   14.1780   -4.1078    0.0000 O   0  0
   14.9816   -4.2732    0.0000 C   0  0
   15.3873   -3.5600    0.0000 C   0  0
   14.8343   -2.9540    0.0000 C   0  0
  1  2  1  0
  1  3  2  0
  1  4  1  0
  5  6  1  0
  4  5  1  0
  7  8  1  0
  8  9  1  0
  9 10  1  0
 10 11  1  0
 11 12  1  0
  7 12  1  0
 13 14  2  0
 14 15  1  0
 15 16  2  0
 16 17  1  0
 17 18  2  0
 18 19  1  0
 19 20  2  0
 20 21  1  0
 21 22  2  0
 13 22  1  0
 17 22  1  0
 20 23  1  0
 10 16  1  0
  2  7  1  0
  6 24  1  0
 24 25  1  0
 25 26  2  0
 26 27  1  0
 27  6  2  0
M  END
> <From> 
www.bindingDB.org

> <BindingDB Reactant_set_id>
50528077

> <Ligand InChI>
InChI=1S/C20H21ClN4O2/c21-15-3-4-17-18(12-15)22-6-5-19(17)25-9-7-24(8-10-25)14-20(26)23-13-16-2-1-11-27-16/h1-6,11-12H,7-10,13-14H2,(H,23,26)

> <Ligand InChI Key>
BUAFIHKVTBDBCE-UHFFFAOYSA-N

> <BindingDB MonomerID>
50202208

> <BindingDB Ligand Name>
CHEMBL3947940

> <Target Name Assigned by Curator or DataSource>
DNA gyrase subunit B

> <Target Source Organism According to Curator or DataSource>


> <Ki (nM)>


> <IC50 (nM)>
 16200

> <Kd (nM)>


> <EC50 (nM)>


> <kon (M-1-s-1)>


> <koff (s-1)>


> <pH>


> <Temp C>


> <Curation/DataSource>
ChEMBL

> <Article DOI>
10.1016/j.ejmech.2016.06.042

> <PMID>
27371925

> <PubChem AID>


> <Patent Number>


> <Authors>
Jeankumar, VU; Reshma, RS; Vats, R; Janupally, R; Saxena, S; Yogeeswari, P; Sriram, D

> <Institution>
Birla Institute of Technology&amp; Science-Pilani

> <Link to Ligand in BindingDB>
http://www.bindingdb.org/bind/chemsearch/marvin/MolStructure.jsp?monomerid=50202208

> <Link to Ligand-Target Pair in BindingDB>
http://www.bindingdb.org/jsp/dbsearch/PrimarySearch_ki.jsp?energyterm=kJ/mole&tag=pol&polymerid=50006452&target=DNA+gyrase+subunit+B&column=ki&startPg=0&Increment=50&submit=Search

> <Link to Ligand-Target Pair in BindingDB>
http://www.bindingdb.org/jsp/dbsearch/PrimarySearch_ki.jsp?energyterm=kJ/mole&tag=r21&monomerid=50202208&enzyme=DNA+gyrase+subunit+B&column=ki&startPg=0&Increment=50&submit=Search

> <Ligand HET ID in PDB>


> <PDB ID(s) for Ligand-Target Complex>


> <PubChem CID>
134146975

> <PubChem SID>
375979589

> <ChEBI ID of Ligand>


> <ChEMBL ID of Ligand>


> <DrugBank ID of Ligand>


> <IUPHAR_GRAC ID of Ligand>


> <KEGG ID of Ligand>


> <ZINC ID of Ligand>


> <Number of Protein Chains in Target (>1 implies a multichain complex)>
1

> <BindingDB Target Chain Sequence>
MAAQKNNAPKEYGADSITILEGLEAVRKRPGMYIGSTGERGLHHLIWEVVDNAVDEAMAGFATRVDVKIHADGSVEVRDDGRGIPVEMHATGMPTIDVVMTQLHAGGKFDGETYAVSGGLHGVGVSVVNALSTRLEATVLRDGYEWFQYYDRSVPGKLKQGGETKETGTTIRFWADPEIFETTDYNFETVARRLQEMAFLNKGLTIELTDERVTAEEVVDDVVKDTAEAPKTADEKAAEATGPSKVKHRVFHYPGGLVDYVKHINRTKTPIQQSIIDFDGKGPGHEVEIAMQWNAGYSESVHTFANTINTHEGGTHEEGFRAALTSVVNRYAKDKKLLKDKDPNLTGDDIREGLAAVISVKVAEPQFEGQTKTKLGNTEVKSFVQKICNEQLQHWFEANPAEAKTVVNKAVSSAQARIAARKARELVRRKSATDIGGLPGKLADCRSTDPSKSELYVVEGDSAGGSAKSGRDSMFQAILPLRGKIINVEKARIDRVLKNTEVQSIITALGTGIHDEFDISKLRYHKIVLMADADVDGQHISTLLLTLLFRFMKPLVENGHIFLAQPPLYKLKWQRSEPEFAYSDRERDGLLEAGRAAGKKINVDDGIQRYKGLGEMDAKELWETTMDPSVRVLRQVTLDDAAAADELFSILMGEDVEARRSFITRNAKDVRFLDV

> <PDB ID(s) of Target Chain>
4BAE

> <UniProt (SwissProt) Recommended Name of Target Chain>
DNA gyrase subunit B

> <UniProt (SwissProt) Entry Name of Target Chain>
GYRB_MYCSM

> <UniProt (SwissProt) Primary ID of Target Chain>
P0C559

> <UniProt (SwissProt) Secondary ID(s) of Target Chain>
P48355,Q59555

> <UniProt (SwissProt) Alternative ID(s) of Target Chain>


> <UniProt (TrEMBL) Submitted Name of Target Chain>


> <UniProt (TrEMBL) Entry Name of Target Chain>


> <UniProt (TrEMBL) Primary ID of Target Chain>


> <UniProt (TrEMBL) Secondary ID(s) of Target Chain>


> <UniProt (TrEMBL) Alternative ID(s) of Target Chain>


$$$$

  Mrv0541 04171609262D          

 21 22  0  0  0  0            999 V2000
    0.7145   -0.4125    0.0000 C   0  0  0  0  0  0  0  0  0  0  0  0
    0.7145    0.4125    0.0000 C   0  0  0  0  0  0  0  0  0  0  0  0
    0.0000    0.8250    0.0000 C   0  0  0  0  0  0  0  0  0  0  0  0
   -0.7145    0.4125    0.0000 C   0  0  0  0  0  0  0  0  0  0  0  0
   -0.7145   -0.4125    0.0000 C   0  0  0  0  0  0  0  0  0  0  0  0
    0.0000   -0.8250    0.0000 C   0  0  0  0  0  0  0  0  0  0  0  0
   -1.4293   -0.8252    0.0000 C   0  0  0  0  0  0  0  0  0  0  0  0
   -2.1732   -0.4848    0.0000 S   0  0  0  0  0  0  0  0  0  0  0  0
   -2.7242   -1.0988    0.0000 C   0  0  0  0  0  0  0  0  0  0  0  0
   -2.3106   -1.8127    0.0000 C   0  0  0  0  0  0  0  0  0  0  0  0
   -1.5039   -1.6399    0.0000 C   0  0  0  0  0  0  0  0  0  0  0  0
   -2.6430   -2.5667    0.0000 C   0  0  0  0  0  0  0  0  0  0  0  0
   -2.2535   -3.0995    0.0000 O   0  0  0  0  0  0  0  0  0  0  0  0
   -3.2991   -2.6379    0.0000 N   0  0  0  0  0  0  0  0  0  0  0  0
   -3.5437   -1.0123    0.0000 N   0  0  0  0  0  0  0  0  0  0  0  0
   -3.8796   -0.2582    0.0000 C   0  0  0  0  0  0  0  0  0  0  0  0
   -4.7005   -0.1715    0.0000 N   0  0  0  0  0  0  0  0  0  0  0  0
   -3.4916    0.2757    0.0000 S   0  0  0  0  0  0  0  0  0  0  0  0
   -5.0364    0.5825    0.0000 C   0  0  0  0  0  0  0  0  0  0  0  0
   -5.6927    0.6518    0.0000 C   0  0  0  0  0  0  0  0  0  0  0  0
   -4.6483    1.1164    0.0000 C   0  0  0  0  0  0  0  0  0  0  0  0
  1  2  4  0  0  0  0
  2  3  4  0  0  0  0
  3  4  4  0  0  0  0
  4  5  4  0  0  0  0
  5  6  4  0  0  0  0
  6  1  4  0  0  0  0
  7  8  4  0  0  0  0
  8  9  4  0  0  0  0
  9 10  4  0  0  0  0
 10 11  4  0  0  0  0
 11  7  4  0  0  0  0
  5  7  1  0  0  0  0
 10 12  1  0  0  0  0
 12 13  2  0  0  0  0
 12 14  1  0  0  0  0
  9 15  1  0  0  0  0
 15 16  1  0  0  0  0
 16 17  1  0  0  0  0
 16 18  2  0  0  0  0
 17 19  1  0  0  0  0
 19 20  1  0  0  0  0
 19 21  1  0  0  0  0
M  END
> <From> 
www.bindingDB.org

> <BindingDB Reactant_set_id>
50302336

> <Ligand InChI>
InChI=1S/C15H17N3OS2/c1-9(2)17-15(20)18-14-11(13(16)19)8-12(21-14)10-6-4-3-5-7-10/h3-9H,1-2H3,(H2,16,19)(H2,17,18,20)

> <Ligand InChI Key>
WNNDBVLAMYYGOU-UHFFFAOYSA-N

> <BindingDB MonomerID>
50066098

> <BindingDB Ligand Name>
CHEMBL3402944

> <Target Name Assigned by Curator or DataSource>
DNA gyrase subunit B

> <Target Source Organism According to Curator or DataSource>


> <Ki (nM)>


> <IC50 (nM)>
 16220

> <Kd (nM)>


> <EC50 (nM)>


> <kon (M-1-s-1)>


> <koff (s-1)>


> <pH>


> <Temp C>
25.00

> <Curation/DataSource>
ChEMBL

> <Article DOI>
10.1016/j.bmc.2015.02.032

> <PMID>
25766629

> <PubChem AID>


> <Patent Number>


> <Authors>
Saxena, S; Samala, G; Renuka, J; Sridevi, JP; Yogeeswari, P; Sriram, D

> <Institution>
Birla Institute of Technology&amp; Science-Pilani

> <Link to Ligand in BindingDB>
http://www.bindingdb.org/bind/chemsearch/marvin/MolStructure.jsp?monomerid=50066098

> <Link to Ligand-Target Pair in BindingDB>
http://www.bindingdb.org/jsp/dbsearch/PrimarySearch_ki.jsp?energyterm=kJ/mole&tag=pol&polymerid=50006452&target=DNA+gyrase+subunit+B&column=ki&startPg=0&Increment=50&submit=Search

> <Link to Ligand-Target Pair in BindingDB>
http://www.bindingdb.org/jsp/dbsearch/PrimarySearch_ki.jsp?energyterm=kJ/mole&tag=r21&monomerid=50066098&enzyme=DNA+gyrase+subunit+B&column=ki&startPg=0&Increment=50&submit=Search

> <Ligand HET ID in PDB>


> <PDB ID(s) for Ligand-Target Complex>


> <PubChem CID>
118729469

> <PubChem SID>
313045053

> <ChEBI ID of Ligand>


> <ChEMBL ID of Ligand>


> <DrugBank ID of Ligand>


> <IUPHAR_GRAC ID of Ligand>


> <KEGG ID of Ligand>


> <ZINC ID of Ligand>


> <Number of Protein Chains in Target (>1 implies a multichain complex)>
1

> <BindingDB Target Chain Sequence>
MAAQKNNAPKEYGADSITILEGLEAVRKRPGMYIGSTGERGLHHLIWEVVDNAVDEAMAGFATRVDVKIHADGSVEVRDDGRGIPVEMHATGMPTIDVVMTQLHAGGKFDGETYAVSGGLHGVGVSVVNALSTRLEATVLRDGYEWFQYYDRSVPGKLKQGGETKETGTTIRFWADPEIFETTDYNFETVARRLQEMAFLNKGLTIELTDERVTAEEVVDDVVKDTAEAPKTADEKAAEATGPSKVKHRVFHYPGGLVDYVKHINRTKTPIQQSIIDFDGKGPGHEVEIAMQWNAGYSESVHTFANTINTHEGGTHEEGFRAALTSVVNRYAKDKKLLKDKDPNLTGDDIREGLAAVISVKVAEPQFEGQTKTKLGNTEVKSFVQKICNEQLQHWFEANPAEAKTVVNKAVSSAQARIAARKARELVRRKSATDIGGLPGKLADCRSTDPSKSELYVVEGDSAGGSAKSGRDSMFQAILPLRGKIINVEKARIDRVLKNTEVQSIITALGTGIHDEFDISKLRYHKIVLMADADVDGQHISTLLLTLLFRFMKPLVENGHIFLAQPPLYKLKWQRSEPEFAYSDRERDGLLEAGRAAGKKINVDDGIQRYKGLGEMDAKELWETTMDPSVRVLRQVTLDDAAAADELFSILMGEDVEARRSFITRNAKDVRFLDV

> <PDB ID(s) of Target Chain>
4BAE

> <UniProt (SwissProt) Recommended Name of Target Chain>
DNA gyrase subunit B

> <UniProt (SwissProt) Entry Name of Target Chain>
GYRB_MYCSM

> <UniProt (SwissProt) Primary ID of Target Chain>
P0C559

> <UniProt (SwissProt) Secondary ID(s) of Target Chain>
P48355,Q59555

> <UniProt (SwissProt) Alternative ID(s) of Target Chain>


> <UniProt (TrEMBL) Submitted Name of Target Chain>


> <UniProt (TrEMBL) Entry Name of Target Chain>


> <UniProt (TrEMBL) Primary ID of Target Chain>


> <UniProt (TrEMBL) Secondary ID(s) of Target Chain>


> <UniProt (TrEMBL) Alternative ID(s) of Target Chain>


$$$$

  SciTegic09081514182D

 30 33  0  0  0  0            999 V2000
   -2.6111    0.7486    0.0000 C   0  0
   -2.6111   -0.7486    0.0000 C   0  0
   -1.2964   -1.4973    0.0000 C   0  0
   -1.2964    1.4973    0.0000 C   0  0
    0.0000    0.7486    0.0000 C   0  0
    0.0000   -0.7486    0.0000 C   0  0
    1.2964   -1.4973    0.0000 N   0  0
    2.5929   -0.7486    0.0000 C   0  0
    2.5929    0.7486    0.0000 C   0  0
    1.2964    1.4973    0.0000 C   0  0
    1.2964    2.9980    0.0000 N   0  0
   -0.0014    3.7503    0.0000 C   0  0
    0.0011    5.2503    0.0000 C   0  0
    1.3014    5.9981    0.0000 C   0  0
    2.5992    5.2460    0.0000 C   0  0
    2.5967    3.7460    0.0000 C   0  0
    1.3069    7.4990    0.0000 N   0  0
    2.6090    8.2454    0.0000 C   0  0
    3.6462    7.6419    0.0000 O   0  0
    2.6145    9.7462    0.0000 N   0  0
    3.9166   10.4926    0.0000 C   0  0
    3.9243   11.9926    0.0000 C   0  0
    5.2272   12.7360    0.0000 C   0  0
    6.5224   11.9794    0.0000 C   0  0
    6.5147   10.4794    0.0000 C   0  0
    5.2119    9.7360    0.0000 C   0  0
    3.6321   -1.3486    0.0000 C   0  0
    7.5647   12.5740    0.0000 Cl  0  0
   -3.9091    1.5019    0.0000 O   0  0
   -3.9072    2.7019    0.0000 C   0  0
  1  2  2  0
  2  3  1  0
  3  6  2  0
  5  4  2  0
  4  1  1  0
  5  6  1  0
  6  7  1  0
  7  8  2  0
  8  9  1  0
  9 10  2  0
 10  5  1  0
 11 12  1  0
 11 16  1  0
 12 13  1  0
 13 14  1  0
 14 15  1  0
 15 16  1  0
 10 11  1  0
 14 17  1  0
 17 18  1  0
 18 19  2  0
 18 20  1  0
 20 21  1  0
 21 22  2  0
 22 23  1  0
 23 24  2  0
 24 25  1  0
 25 26  2  0
 26 21  1  0
  8 27  1  0
 24 28  1  0
  1 29  1  0
 29 30  1  0
M  END
> <From> 
www.bindingDB.org

> <BindingDB Reactant_set_id>
50303809

> <Ligand InChI>
InChI=1S/C23H25ClN4O2/c1-15-13-22(20-14-19(30-2)7-8-21(20)25-15)28-11-9-18(10-12-28)27-23(29)26-17-5-3-16(24)4-6-17/h3-8,13-14,18H,9-12H2,1-2H3,(H2,26,27,29)

> <Ligand InChI Key>
LQVKUHDFGQCRGY-UHFFFAOYSA-N

> <BindingDB MonomerID>
50066956

> <BindingDB Ligand Name>
CHEMBL3403250

> <Target Name Assigned by Curator or DataSource>
DNA gyrase subunit B

> <Target Source Organism According to Curator or DataSource>


> <Ki (nM)>


> <IC50 (nM)>
 16240

> <Kd (nM)>


> <EC50 (nM)>


> <kon (M-1-s-1)>


> <koff (s-1)>


> <pH>


> <Temp C>


> <Curation/DataSource>
ChEMBL

> <Article DOI>
10.1016/j.bmc.2015.03.004

> <PMID>
25801151

> <PubChem AID>


> <Patent Number>


> <Authors>
Medapi, B; Renuka, J; Saxena, S; Sridevi, JP; Medishetti, R; Kulkarni, P; Yogeeswari, P; Sriram, D

> <Institution>
Birla Institute of Technology&amp; Science-Pilani

> <Link to Ligand in BindingDB>
http://www.bindingdb.org/bind/chemsearch/marvin/MolStructure.jsp?monomerid=50066956

> <Link to Ligand-Target Pair in BindingDB>
http://www.bindingdb.org/jsp/dbsearch/PrimarySearch_ki.jsp?energyterm=kJ/mole&tag=pol&polymerid=50006452&target=DNA+gyrase+subunit+B&column=ki&startPg=0&Increment=50&submit=Search

> <Link to Ligand-Target Pair in BindingDB>
http://www.bindingdb.org/jsp/dbsearch/PrimarySearch_ki.jsp?energyterm=kJ/mole&tag=r21&monomerid=50066956&enzyme=DNA+gyrase+subunit+B&column=ki&startPg=0&Increment=50&submit=Search

> <Ligand HET ID in PDB>


> <PDB ID(s) for Ligand-Target Complex>


> <PubChem CID>
118729666

> <PubChem SID>
103961492

> <ChEBI ID of Ligand>


> <ChEMBL ID of Ligand>
CHEMBL123900

> <DrugBank ID of Ligand>


> <IUPHAR_GRAC ID of Ligand>


> <KEGG ID of Ligand>


> <ZINC ID of Ligand>
ZINC13781219

> <Number of Protein Chains in Target (>1 implies a multichain complex)>
1

> <BindingDB Target Chain Sequence>
MAAQKNNAPKEYGADSITILEGLEAVRKRPGMYIGSTGERGLHHLIWEVVDNAVDEAMAGFATRVDVKIHADGSVEVRDDGRGIPVEMHATGMPTIDVVMTQLHAGGKFDGETYAVSGGLHGVGVSVVNALSTRLEATVLRDGYEWFQYYDRSVPGKLKQGGETKETGTTIRFWADPEIFETTDYNFETVARRLQEMAFLNKGLTIELTDERVTAEEVVDDVVKDTAEAPKTADEKAAEATGPSKVKHRVFHYPGGLVDYVKHINRTKTPIQQSIIDFDGKGPGHEVEIAMQWNAGYSESVHTFANTINTHEGGTHEEGFRAALTSVVNRYAKDKKLLKDKDPNLTGDDIREGLAAVISVKVAEPQFEGQTKTKLGNTEVKSFVQKICNEQLQHWFEANPAEAKTVVNKAVSSAQARIAARKARELVRRKSATDIGGLPGKLADCRSTDPSKSELYVVEGDSAGGSAKSGRDSMFQAILPLRGKIINVEKARIDRVLKNTEVQSIITALGTGIHDEFDISKLRYHKIVLMADADVDGQHISTLLLTLLFRFMKPLVENGHIFLAQPPLYKLKWQRSEPEFAYSDRERDGLLEAGRAAGKKINVDDGIQRYKGLGEMDAKELWETTMDPSVRVLRQVTLDDAAAADELFSILMGEDVEARRSFITRNAKDVRFLDV

> <PDB ID(s) of Target Chain>
4BAE

> <UniProt (SwissProt) Recommended Name of Target Chain>
DNA gyrase subunit B

> <UniProt (SwissProt) Entry Name of Target Chain>
GYRB_MYCSM

> <UniProt (SwissProt) Primary ID of Target Chain>
P0C559

> <UniProt (SwissProt) Secondary ID(s) of Target Chain>
P48355,Q59555

> <UniProt (SwissProt) Alternative ID(s) of Target Chain>


> <UniProt (TrEMBL) Submitted Name of Target Chain>


> <UniProt (TrEMBL) Entry Name of Target Chain>


> <UniProt (TrEMBL) Primary ID of Target Chain>


> <UniProt (TrEMBL) Secondary ID(s) of Target Chain>


> <UniProt (TrEMBL) Alternative ID(s) of Target Chain>


$$$$

  Mrv0541 04171609262D          

 32 35  0  0  0  0            999 V2000
   -1.4361    0.4117    0.0000 C   0  0  0  0  0  0  0  0  0  0  0  0
   -1.4361   -0.4117    0.0000 C   0  0  0  0  0  0  0  0  0  0  0  0
   -0.7130   -0.8235    0.0000 C   0  0  0  0  0  0  0  0  0  0  0  0
   -0.7130    0.8235    0.0000 C   0  0  0  0  0  0  0  0  0  0  0  0
    0.0000    0.4117    0.0000 C   0  0  0  0  0  0  0  0  0  0  0  0
    0.0000   -0.4117    0.0000 C   0  0  0  0  0  0  0  0  0  0  0  0
    0.7130   -0.8235    0.0000 N   0  0  0  0  0  0  0  0  0  0  0  0
    1.4261   -0.4117    0.0000 C   0  0  0  0  0  0  0  0  0  0  0  0
    1.4261    0.4117    0.0000 C   0  0  0  0  0  0  0  0  0  0  0  0
    0.7130    0.8235    0.0000 C   0  0  0  0  0  0  0  0  0  0  0  0
    0.7130    1.6489    0.0000 N   0  0  0  0  0  0  0  0  0  0  0  0
   -0.0008    2.0627    0.0000 C   0  0  0  0  0  0  0  0  0  0  0  0
    0.0006    2.8877    0.0000 C   0  0  0  0  0  0  0  0  0  0  0  0
    0.7158    3.2990    0.0000 C   0  0  0  0  0  0  0  0  0  0  0  0
    1.4296    2.8853    0.0000 C   0  0  0  0  0  0  0  0  0  0  0  0
    1.4282    2.0603    0.0000 C   0  0  0  0  0  0  0  0  0  0  0  0
    0.7188    4.1245    0.0000 N   0  0  0  0  0  0  0  0  0  0  0  0
    1.4350    4.5350    0.0000 C   0  0  0  0  0  0  0  0  0  0  0  0
    2.0054    4.2031    0.0000 S   0  0  0  0  0  0  0  0  0  0  0  0
    1.4380    5.3604    0.0000 N   0  0  0  0  0  0  0  0  0  0  0  0
    2.1541    5.7709    0.0000 C   0  0  0  0  0  0  0  0  0  0  0  0
    2.1584    6.5960    0.0000 C   0  0  0  0  0  0  0  0  0  0  0  0
    2.8750    7.0048    0.0000 C   0  0  0  0  0  0  0  0  0  0  0  0
    3.5873    6.5887    0.0000 C   0  0  0  0  0  0  0  0  0  0  0  0
    3.5831    5.7637    0.0000 C   0  0  0  0  0  0  0  0  0  0  0  0
    2.8666    5.3548    0.0000 C   0  0  0  0  0  0  0  0  0  0  0  0
    1.9977   -0.7417    0.0000 C   0  0  0  0  0  0  0  0  0  0  0  0
   -2.1508    0.8246    0.0000 C   0  0  0  0  0  0  0  0  0  0  0  0
   -2.7227    0.4950    0.0000 F   0  0  0  0  0  0  0  0  0  0  0  0
   -2.1506    1.4846    0.0000 F   0  0  0  0  0  0  0  0  0  0  0  0
   -2.7222    1.1549    0.0000 F   0  0  0  0  0  0  0  0  0  0  0  0
    4.1606    6.9157    0.0000 Cl  0  0  0  0  0  0  0  0  0  0  0  0
  1  2  4  0  0  0  0
  2  3  4  0  0  0  0
  3  6  4  0  0  0  0
  5  4  4  0  0  0  0
  4  1  4  0  0  0  0
  5  6  4  0  0  0  0
  6  7  4  0  0  0  0
  7  8  4  0  0  0  0
  8  9  4  0  0  0  0
  9 10  4  0  0  0  0
 10  5  4  0  0  0  0
 11 12  1  0  0  0  0
 11 16  1  0  0  0  0
 12 13  1  0  0  0  0
 13 14  1  0  0  0  0
 14 15  1  0  0  0  0
 15 16  1  0  0  0  0
 10 11  1  0  0  0  0
 14 17  1  0  0  0  0
 17 18  1  0  0  0  0
 18 19  2  0  0  0  0
 18 20  1  0  0  0  0
 20 21  1  0  0  0  0
 21 22  4  0  0  0  0
 22 23  4  0  0  0  0
 23 24  4  0  0  0  0
 24 25  4  0  0  0  0
 25 26  4  0  0  0  0
 26 21  4  0  0  0  0
  8 27  1  0  0  0  0
  1 28  1  0  0  0  0
 28 29  1  0  0  0  0
 28 30  1  0  0  0  0
 28 31  1  0  0  0  0
 24 32  1  0  0  0  0
M  END
> <From> 
www.bindingDB.org

> <BindingDB Reactant_set_id>
50303824

> <Ligand InChI>
InChI=1S/C23H22ClF3N4S/c1-14-12-21(19-13-15(23(25,26)27)2-7-20(19)28-14)31-10-8-18(9-11-31)30-22(32)29-17-5-3-16(24)4-6-17/h2-7,12-13,18H,8-11H2,1H3,(H2,29,30,32)

> <Ligand InChI Key>
ZEIQDIBHZGEPJH-UHFFFAOYSA-N

> <BindingDB MonomerID>
50067165

> <BindingDB Ligand Name>
CHEMBL3403285

> <Target Name Assigned by Curator or DataSource>
DNA gyrase subunit B

> <Target Source Organism According to Curator or DataSource>


> <Ki (nM)>


> <IC50 (nM)>
 16530

> <Kd (nM)>


> <EC50 (nM)>


> <kon (M-1-s-1)>


> <koff (s-1)>


> <pH>


> <Temp C>


> <Curation/DataSource>
ChEMBL

> <Article DOI>
10.1016/j.bmc.2015.03.004

> <PMID>
25801151

> <PubChem AID>


> <Patent Number>


> <Authors>
Medapi, B; Renuka, J; Saxena, S; Sridevi, JP; Medishetti, R; Kulkarni, P; Yogeeswari, P; Sriram, D

> <Institution>
Birla Institute of Technology&amp; Science-Pilani

> <Link to Ligand in BindingDB>
http://www.bindingdb.org/bind/chemsearch/marvin/MolStructure.jsp?monomerid=50067165

> <Link to Ligand-Target Pair in BindingDB>
http://www.bindingdb.org/jsp/dbsearch/PrimarySearch_ki.jsp?energyterm=kJ/mole&tag=pol&polymerid=50006452&target=DNA+gyrase+subunit+B&column=ki&startPg=0&Increment=50&submit=Search

> <Link to Ligand-Target Pair in BindingDB>
http://www.bindingdb.org/jsp/dbsearch/PrimarySearch_ki.jsp?energyterm=kJ/mole&tag=r21&monomerid=50067165&enzyme=DNA+gyrase+subunit+B&column=ki&startPg=0&Increment=50&submit=Search

> <Ligand HET ID in PDB>


> <PDB ID(s) for Ligand-Target Complex>


> <PubChem CID>
118729702

> <PubChem SID>
313071794

> <ChEBI ID of Ligand>


> <ChEMBL ID of Ligand>


> <DrugBank ID of Ligand>


> <IUPHAR_GRAC ID of Ligand>


> <KEGG ID of Ligand>


> <ZINC ID of Ligand>


> <Number of Protein Chains in Target (>1 implies a multichain complex)>
1

> <BindingDB Target Chain Sequence>
MAAQKNNAPKEYGADSITILEGLEAVRKRPGMYIGSTGERGLHHLIWEVVDNAVDEAMAGFATRVDVKIHADGSVEVRDDGRGIPVEMHATGMPTIDVVMTQLHAGGKFDGETYAVSGGLHGVGVSVVNALSTRLEATVLRDGYEWFQYYDRSVPGKLKQGGETKETGTTIRFWADPEIFETTDYNFETVARRLQEMAFLNKGLTIELTDERVTAEEVVDDVVKDTAEAPKTADEKAAEATGPSKVKHRVFHYPGGLVDYVKHINRTKTPIQQSIIDFDGKGPGHEVEIAMQWNAGYSESVHTFANTINTHEGGTHEEGFRAALTSVVNRYAKDKKLLKDKDPNLTGDDIREGLAAVISVKVAEPQFEGQTKTKLGNTEVKSFVQKICNEQLQHWFEANPAEAKTVVNKAVSSAQARIAARKARELVRRKSATDIGGLPGKLADCRSTDPSKSELYVVEGDSAGGSAKSGRDSMFQAILPLRGKIINVEKARIDRVLKNTEVQSIITALGTGIHDEFDISKLRYHKIVLMADADVDGQHISTLLLTLLFRFMKPLVENGHIFLAQPPLYKLKWQRSEPEFAYSDRERDGLLEAGRAAGKKINVDDGIQRYKGLGEMDAKELWETTMDPSVRVLRQVTLDDAAAADELFSILMGEDVEARRSFITRNAKDVRFLDV

> <PDB ID(s) of Target Chain>
4BAE

> <UniProt (SwissProt) Recommended Name of Target Chain>
DNA gyrase subunit B

> <UniProt (SwissProt) Entry Name of Target Chain>
GYRB_MYCSM

> <UniProt (SwissProt) Primary ID of Target Chain>
P0C559

> <UniProt (SwissProt) Secondary ID(s) of Target Chain>
P48355,Q59555

> <UniProt (SwissProt) Alternative ID(s) of Target Chain>


> <UniProt (TrEMBL) Submitted Name of Target Chain>


> <UniProt (TrEMBL) Entry Name of Target Chain>


> <UniProt (TrEMBL) Primary ID of Target Chain>


> <UniProt (TrEMBL) Secondary ID(s) of Target Chain>


> <UniProt (TrEMBL) Alternative ID(s) of Target Chain>


$$$$

  Mrv0541 04171609262D          

 32 35  0  0  0  0            999 V2000
   -1.4361    0.4117    0.0000 C   0  0  0  0  0  0  0  0  0  0  0  0
   -1.4361   -0.4117    0.0000 C   0  0  0  0  0  0  0  0  0  0  0  0
   -0.7130   -0.8235    0.0000 C   0  0  0  0  0  0  0  0  0  0  0  0
   -0.7130    0.8235    0.0000 C   0  0  0  0  0  0  0  0  0  0  0  0
    0.0000    0.4117    0.0000 C   0  0  0  0  0  0  0  0  0  0  0  0
    0.0000   -0.4117    0.0000 C   0  0  0  0  0  0  0  0  0  0  0  0
    0.7130   -0.8235    0.0000 N   0  0  0  0  0  0  0  0  0  0  0  0
    1.4261   -0.4117    0.0000 C   0  0  0  0  0  0  0  0  0  0  0  0
    1.4261    0.4117    0.0000 C   0  0  0  0  0  0  0  0  0  0  0  0
    0.7130    0.8235    0.0000 C   0  0  0  0  0  0  0  0  0  0  0  0
    0.7130    1.6489    0.0000 N   0  0  0  0  0  0  0  0  0  0  0  0
   -0.0008    2.0627    0.0000 C   0  0  0  0  0  0  0  0  0  0  0  0
    0.0006    2.8877    0.0000 C   0  0  0  0  0  0  0  0  0  0  0  0
    0.7158    3.2990    0.0000 C   0  0  0  0  0  0  0  0  0  0  0  0
    1.4296    2.8853    0.0000 C   0  0  0  0  0  0  0  0  0  0  0  0
    1.4282    2.0603    0.0000 C   0  0  0  0  0  0  0  0  0  0  0  0
    0.7188    4.1245    0.0000 N   0  0  0  0  0  0  0  0  0  0  0  0
    1.4350    4.5350    0.0000 C   0  0  0  0  0  0  0  0  0  0  0  0
    2.0054    4.2031    0.0000 O   0  0  0  0  0  0  0  0  0  0  0  0
    1.4380    5.3604    0.0000 N   0  0  0  0  0  0  0  0  0  0  0  0
    2.1541    5.7709    0.0000 C   0  0  0  0  0  0  0  0  0  0  0  0
    2.1584    6.5960    0.0000 C   0  0  0  0  0  0  0  0  0  0  0  0
    2.8750    7.0048    0.0000 C   0  0  0  0  0  0  0  0  0  0  0  0
    3.5873    6.5887    0.0000 C   0  0  0  0  0  0  0  0  0  0  0  0
    3.5831    5.7637    0.0000 C   0  0  0  0  0  0  0  0  0  0  0  0
    2.8666    5.3548    0.0000 C   0  0  0  0  0  0  0  0  0  0  0  0
    1.9977   -0.7417    0.0000 C   0  0  0  0  0  0  0  0  0  0  0  0
   -2.1508    0.8246    0.0000 C   0  0  0  0  0  0  0  0  0  0  0  0
   -2.7227    0.4950    0.0000 F   0  0  0  0  0  0  0  0  0  0  0  0
   -2.1506    1.4846    0.0000 F   0  0  0  0  0  0  0  0  0  0  0  0
   -2.7222    1.1549    0.0000 F   0  0  0  0  0  0  0  0  0  0  0  0
    4.1606    6.9157    0.0000 C   0  0  0  0  0  0  0  0  0  0  0  0
  1  2  4  0  0  0  0
  2  3  4  0  0  0  0
  3  6  4  0  0  0  0
  5  4  4  0  0  0  0
  4  1  4  0  0  0  0
  5  6  4  0  0  0  0
  6  7  4  0  0  0  0
  7  8  4  0  0  0  0
  8  9  4  0  0  0  0
  9 10  4  0  0  0  0
 10  5  4  0  0  0  0
 11 12  1  0  0  0  0
 11 16  1  0  0  0  0
 12 13  1  0  0  0  0
 13 14  1  0  0  0  0
 14 15  1  0  0  0  0
 15 16  1  0  0  0  0
 10 11  1  0  0  0  0
 14 17  1  0  0  0  0
 17 18  1  0  0  0  0
 18 19  2  0  0  0  0
 18 20  1  0  0  0  0
 20 21  1  0  0  0  0
 21 22  4  0  0  0  0
 22 23  4  0  0  0  0
 23 24  4  0  0  0  0
 24 25  4  0  0  0  0
 25 26  4  0  0  0  0
 26 21  4  0  0  0  0
  8 27  1  0  0  0  0
  1 28  1  0  0  0  0
 28 29  1  0  0  0  0
 28 30  1  0  0  0  0
 28 31  1  0  0  0  0
 24 32  1  0  0  0  0
M  END
> <From> 
www.bindingDB.org

> <BindingDB Reactant_set_id>
50303845

> <Ligand InChI>
InChI=1S/C24H25F3N4O/c1-15-3-6-18(7-4-15)29-23(32)30-19-9-11-31(12-10-19)22-13-16(2)28-21-8-5-17(14-20(21)22)24(25,26)27/h3-8,13-14,19H,9-12H2,1-2H3,(H2,29,30,32)

> <Ligand InChI Key>
LDQIWJSGEVKRPF-UHFFFAOYSA-N

> <BindingDB MonomerID>
50067143

> <BindingDB Ligand Name>
CHEMBL3403264

> <Target Name Assigned by Curator or DataSource>
DNA gyrase subunit B

> <Target Source Organism According to Curator or DataSource>


> <Ki (nM)>


> <IC50 (nM)>
 16600

> <Kd (nM)>


> <EC50 (nM)>


> <kon (M-1-s-1)>


> <koff (s-1)>


> <pH>


> <Temp C>


> <Curation/DataSource>
ChEMBL

> <Article DOI>
10.1016/j.bmc.2015.03.004

> <PMID>
25801151

> <PubChem AID>


> <Patent Number>


> <Authors>
Medapi, B; Renuka, J; Saxena, S; Sridevi, JP; Medishetti, R; Kulkarni, P; Yogeeswari, P; Sriram, D

> <Institution>
Birla Institute of Technology&amp; Science-Pilani

> <Link to Ligand in BindingDB>
http://www.bindingdb.org/bind/chemsearch/marvin/MolStructure.jsp?monomerid=50067143

> <Link to Ligand-Target Pair in BindingDB>
http://www.bindingdb.org/jsp/dbsearch/PrimarySearch_ki.jsp?energyterm=kJ/mole&tag=pol&polymerid=50006452&target=DNA+gyrase+subunit+B&column=ki&startPg=0&Increment=50&submit=Search

> <Link to Ligand-Target Pair in BindingDB>
http://www.bindingdb.org/jsp/dbsearch/PrimarySearch_ki.jsp?energyterm=kJ/mole&tag=r21&monomerid=50067143&enzyme=DNA+gyrase+subunit+B&column=ki&startPg=0&Increment=50&submit=Search

> <Ligand HET ID in PDB>


> <PDB ID(s) for Ligand-Target Complex>


> <PubChem CID>
118729680

> <PubChem SID>
313071774

> <ChEBI ID of Ligand>


> <ChEMBL ID of Ligand>


> <DrugBank ID of Ligand>


> <IUPHAR_GRAC ID of Ligand>


> <KEGG ID of Ligand>


> <ZINC ID of Ligand>


> <Number of Protein Chains in Target (>1 implies a multichain complex)>
1

> <BindingDB Target Chain Sequence>
MAAQKNNAPKEYGADSITILEGLEAVRKRPGMYIGSTGERGLHHLIWEVVDNAVDEAMAGFATRVDVKIHADGSVEVRDDGRGIPVEMHATGMPTIDVVMTQLHAGGKFDGETYAVSGGLHGVGVSVVNALSTRLEATVLRDGYEWFQYYDRSVPGKLKQGGETKETGTTIRFWADPEIFETTDYNFETVARRLQEMAFLNKGLTIELTDERVTAEEVVDDVVKDTAEAPKTADEKAAEATGPSKVKHRVFHYPGGLVDYVKHINRTKTPIQQSIIDFDGKGPGHEVEIAMQWNAGYSESVHTFANTINTHEGGTHEEGFRAALTSVVNRYAKDKKLLKDKDPNLTGDDIREGLAAVISVKVAEPQFEGQTKTKLGNTEVKSFVQKICNEQLQHWFEANPAEAKTVVNKAVSSAQARIAARKARELVRRKSATDIGGLPGKLADCRSTDPSKSELYVVEGDSAGGSAKSGRDSMFQAILPLRGKIINVEKARIDRVLKNTEVQSIITALGTGIHDEFDISKLRYHKIVLMADADVDGQHISTLLLTLLFRFMKPLVENGHIFLAQPPLYKLKWQRSEPEFAYSDRERDGLLEAGRAAGKKINVDDGIQRYKGLGEMDAKELWETTMDPSVRVLRQVTLDDAAAADELFSILMGEDVEARRSFITRNAKDVRFLDV

> <PDB ID(s) of Target Chain>
4BAE

> <UniProt (SwissProt) Recommended Name of Target Chain>
DNA gyrase subunit B

> <UniProt (SwissProt) Entry Name of Target Chain>
GYRB_MYCSM

> <UniProt (SwissProt) Primary ID of Target Chain>
P0C559

> <UniProt (SwissProt) Secondary ID(s) of Target Chain>
P48355,Q59555

> <UniProt (SwissProt) Alternative ID(s) of Target Chain>


> <UniProt (TrEMBL) Submitted Name of Target Chain>


> <UniProt (TrEMBL) Entry Name of Target Chain>


> <UniProt (TrEMBL) Primary ID of Target Chain>


> <UniProt (TrEMBL) Secondary ID(s) of Target Chain>


> <UniProt (TrEMBL) Alternative ID(s) of Target Chain>


$$$$

  SciTegic02271514552D

 30 33  0  0  0  0            999 V2000
   10.1096   -5.7253    0.0000 O   0  0
   10.5899   -5.0642    0.0000 C   0  0
   10.1096   -4.4030    0.0000 C   0  0
    9.3324   -4.6556    0.0000 C   0  0
    9.3324   -5.4728    0.0000 C   0  0
    8.6247   -4.2470    0.0000 C   0  0
    7.9170   -4.6556    0.0000 C   0  0
    7.9170   -5.4728    0.0000 C   0  0
    8.6247   -5.8814    0.0000 C   0  0
   11.4071   -5.0642    0.0000 C   0  0
   11.8157   -5.7719    0.0000 O   0  0
   11.8157   -4.3565    0.0000 O   0  0
    7.2093   -4.2470    0.0000 N   0  0
    6.5016   -4.6556    0.0000 C   0  0
    5.7939   -4.2470    0.0000 C   0  0
    5.7939   -3.4298    0.0000 N   0  0
    6.5016   -3.0212    0.0000 C   0  0
    7.2093   -3.4298    0.0000 C   0  0
    5.0861   -3.0212    0.0000 C   0  0
    5.0861   -2.2040    0.0000 O   0  0
    4.3784   -3.4298    0.0000 C   0  0
    3.6707   -3.0212    0.0000 C   0  0
    2.9630   -3.4298    0.0000 C   0  0
    2.2553   -3.0212    0.0000 C   0  0
    2.2553   -2.2040    0.0000 C   0  0
    2.9630   -1.7954    0.0000 C   0  0
    3.6707   -2.2040    0.0000 C   0  0
    1.5476   -1.7954    0.0000 Br  0  0
   12.6329   -4.3565    0.0000 C   0  0
   13.0415   -3.6487    0.0000 C   0  0
  1  2  1  0
  2  3  2  0
  3  4  1  0
  4  5  1  0
  1  5  1  0
  6  7  1  0
  7  8  2  0
  8  9  1  0
  5  9  2  0
  4  6  2  0
 10 11  2  0
 10 12  1  0
  2 10  1  0
 13 14  1  0
 14 15  1  0
 15 16  1  0
 16 17  1  0
 17 18  1  0
 13 18  1  0
 19 20  2  0
 19 21  1  0
 22 23  1  0
 23 24  2  0
 24 25  1  0
 25 26  2  0
 26 27  1  0
 22 27  2  0
 25 28  1  0
 21 22  1  0
 16 19  1  0
  7 13  1  0
 29 30  1  0
 12 29  1  0
M  END
> <From> 
www.bindingDB.org

> <BindingDB Reactant_set_id>
50369961

> <Ligand InChI>
InChI=1S/C23H23BrN2O4/c1-2-29-23(28)21-15-17-14-19(7-8-20(17)30-21)25-9-11-26(12-10-25)22(27)13-16-3-5-18(24)6-4-16/h3-8,14-15H,2,9-13H2,1H3

> <Ligand InChI Key>
BJXNDGCZAWVUKE-UHFFFAOYSA-N

> <BindingDB MonomerID>
50100691

> <BindingDB Ligand Name>
CHEMBL3323158

> <Target Name Assigned by Curator or DataSource>
DNA gyrase subunit B

> <Target Source Organism According to Curator or DataSource>


> <Ki (nM)>


> <IC50 (nM)>
 16630

> <Kd (nM)>


> <EC50 (nM)>


> <kon (M-1-s-1)>


> <koff (s-1)>


> <pH>


> <Temp C>


> <Curation/DataSource>
ChEMBL

> <Article DOI>
10.1016/j.bmc.2014.06.041

> <PMID>
25129171

> <PubChem AID>


> <Patent Number>


> <Authors>
Renuka, J; Reddy, KI; Srihari, K; Jeankumar, VU; Shravan, M; Sridevi, JP; Yogeeswari, P; Babu, KS; Sriram, D

> <Institution>
Institute of Technology&amp; Science-Pilani

> <Link to Ligand in BindingDB>
http://www.bindingdb.org/bind/chemsearch/marvin/MolStructure.jsp?monomerid=50100691

> <Link to Ligand-Target Pair in BindingDB>
http://www.bindingdb.org/jsp/dbsearch/PrimarySearch_ki.jsp?energyterm=kJ/mole&tag=pol&polymerid=50006452&target=DNA+gyrase+subunit+B&column=ki&startPg=0&Increment=50&submit=Search

> <Link to Ligand-Target Pair in BindingDB>
http://www.bindingdb.org/jsp/dbsearch/PrimarySearch_ki.jsp?energyterm=kJ/mole&tag=r21&monomerid=50100691&enzyme=DNA+gyrase+subunit+B&column=ki&startPg=0&Increment=50&submit=Search

> <Ligand HET ID in PDB>


> <PDB ID(s) for Ligand-Target Complex>


> <PubChem CID>
118710570

> <PubChem SID>
103997419

> <ChEBI ID of Ligand>


> <ChEMBL ID of Ligand>
CHEMBL70932

> <DrugBank ID of Ligand>


> <IUPHAR_GRAC ID of Ligand>


> <KEGG ID of Ligand>


> <ZINC ID of Ligand>
ZINC26296570

> <Number of Protein Chains in Target (>1 implies a multichain complex)>
1

> <BindingDB Target Chain Sequence>
MAAQKNNAPKEYGADSITILEGLEAVRKRPGMYIGSTGERGLHHLIWEVVDNAVDEAMAGFATRVDVKIHADGSVEVRDDGRGIPVEMHATGMPTIDVVMTQLHAGGKFDGETYAVSGGLHGVGVSVVNALSTRLEATVLRDGYEWFQYYDRSVPGKLKQGGETKETGTTIRFWADPEIFETTDYNFETVARRLQEMAFLNKGLTIELTDERVTAEEVVDDVVKDTAEAPKTADEKAAEATGPSKVKHRVFHYPGGLVDYVKHINRTKTPIQQSIIDFDGKGPGHEVEIAMQWNAGYSESVHTFANTINTHEGGTHEEGFRAALTSVVNRYAKDKKLLKDKDPNLTGDDIREGLAAVISVKVAEPQFEGQTKTKLGNTEVKSFVQKICNEQLQHWFEANPAEAKTVVNKAVSSAQARIAARKARELVRRKSATDIGGLPGKLADCRSTDPSKSELYVVEGDSAGGSAKSGRDSMFQAILPLRGKIINVEKARIDRVLKNTEVQSIITALGTGIHDEFDISKLRYHKIVLMADADVDGQHISTLLLTLLFRFMKPLVENGHIFLAQPPLYKLKWQRSEPEFAYSDRERDGLLEAGRAAGKKINVDDGIQRYKGLGEMDAKELWETTMDPSVRVLRQVTLDDAAAADELFSILMGEDVEARRSFITRNAKDVRFLDV

> <PDB ID(s) of Target Chain>
4BAE

> <UniProt (SwissProt) Recommended Name of Target Chain>
DNA gyrase subunit B

> <UniProt (SwissProt) Entry Name of Target Chain>
GYRB_MYCSM

> <UniProt (SwissProt) Primary ID of Target Chain>
P0C559

> <UniProt (SwissProt) Secondary ID(s) of Target Chain>
P48355,Q59555

> <UniProt (SwissProt) Alternative ID(s) of Target Chain>


> <UniProt (TrEMBL) Submitted Name of Target Chain>


> <UniProt (TrEMBL) Entry Name of Target Chain>


> <UniProt (TrEMBL) Primary ID of Target Chain>


> <UniProt (TrEMBL) Secondary ID(s) of Target Chain>


> <UniProt (TrEMBL) Alternative ID(s) of Target Chain>


$$$$

  SciTegic04201612532D

 33 36  0  0  0  0            999 V2000
   -1.2964    1.4973    0.0000 N   0  0
   -2.6111    0.7486    0.0000 C   0  0
   -2.6111   -0.7486    0.0000 C   0  0
   -1.2964   -1.4973    0.0000 C   0  0
    0.0000   -0.7486    0.0000 C   0  0
    1.2964   -1.4973    0.0000 C   0  0
    2.5929   -0.7486    0.0000 C   0  0
    2.5929    0.7486    0.0000 C   0  0
    1.2964    1.4973    0.0000 C   0  0
    0.0000    0.7486    0.0000 C   0  0
   -3.9122   -1.4966    0.0000 C   0  0
   -3.9138   -2.4966    0.0000 O   0  0
   -5.2109   -0.7445    0.0000 O   0  0
   -1.2907   -2.9981    0.0000 N   0  0
   -2.5870   -3.7544    0.0000 C   0  0
   -2.5835   -5.2544    0.0000 C   0  0
   -3.8807   -6.0076    0.0000 C   0  0
   -5.1815   -5.2608    0.0000 C   0  0
   -5.1852   -3.7608    0.0000 C   0  0
   -3.8880   -3.0076    0.0000 C   0  0
   -6.4810   -6.0117    0.0000 O   0  0
   -7.7815   -5.2626    0.0000 C   0  0
   -9.0810   -6.0135    0.0000 C   0  0
  -10.3815   -5.2644    0.0000 C   0  0
  -14.2755   -7.5217    0.0000 O   0  0
  -14.2791   -6.0217    0.0000 C   0  0
  -12.9819   -5.2686    0.0000 C   0  0
  -11.6810   -6.0154    0.0000 N   0  0
  -11.6774   -7.5154    0.0000 C   0  0
  -12.9746   -8.2686    0.0000 C   0  0
   -6.5121   -1.4924    0.0000 C   0  0
   -7.5506   -0.8910    0.0000 C   0  0
    3.6321   -1.3486    0.0000 F   0  0
  1  2  2  0
  2  3  1  0
  3  4  2  0
  4  5  1  0
  5  6  2  0
  6  7  1  0
  7  8  2  0
  8  9  1  0
  9 10  2  0
  1 10  1  0
  5 10  1  0
 11 12  2  0
 11 13  1  0
  3 11  1  0
 15 16  1  0
 16 17  2  0
 17 18  1  0
 18 19  2  0
 19 20  1  0
 15 20  2  0
 22 23  1  0
 23 24  1  0
 21 22  1  0
 25 26  1  0
 26 27  1  0
 27 28  1  0
 28 29  1  0
 29 30  1  0
 25 30  1  0
 24 28  1  0
 18 21  1  0
 14 15  1  0
  4 14  1  0
 31 32  1  0
 13 31  1  0
  7 33  1  0
M  END
> <From> 
www.bindingDB.org

> <BindingDB Reactant_set_id>
50426792

> <Ligand InChI>
InChI=1S/C25H28FN3O4/c1-2-32-25(30)22-17-27-23-9-4-18(26)16-21(23)24(22)28-19-5-7-20(8-6-19)33-13-3-10-29-11-14-31-15-12-29/h4-9,16-17H,2-3,10-15H2,1H3,(H,27,28)

> <Ligand InChI Key>
CCNRNNWYCOAITH-UHFFFAOYSA-N

> <BindingDB MonomerID>
50126839

> <BindingDB Ligand Name>
CHEMBL3628349

> <Target Name Assigned by Curator or DataSource>
DNA gyrase subunit B

> <Target Source Organism According to Curator or DataSource>


> <Ki (nM)>


> <IC50 (nM)>
 16870

> <Kd (nM)>


> <EC50 (nM)>


> <kon (M-1-s-1)>


> <koff (s-1)>


> <pH>


> <Temp C>


> <Curation/DataSource>
ChEMBL

> <Article DOI>
10.1016/j.ejmech.2015.06.032

> <PMID>
26318054

> <PubChem AID>


> <Patent Number>


> <Authors>
Medapi, B; Suryadevara, P; Renuka, J; Sridevi, JP; Yogeeswari, P; Sriram, D

> <Institution>
Birla Institute of Technology&amp;Science

> <Link to Ligand in BindingDB>
http://www.bindingdb.org/bind/chemsearch/marvin/MolStructure.jsp?monomerid=50126839

> <Link to Ligand-Target Pair in BindingDB>
http://www.bindingdb.org/jsp/dbsearch/PrimarySearch_ki.jsp?energyterm=kJ/mole&tag=pol&polymerid=50006452&target=DNA+gyrase+subunit+B&column=ki&startPg=0&Increment=50&submit=Search

> <Link to Ligand-Target Pair in BindingDB>
http://www.bindingdb.org/jsp/dbsearch/PrimarySearch_ki.jsp?energyterm=kJ/mole&tag=r21&monomerid=50126839&enzyme=DNA+gyrase+subunit+B&column=ki&startPg=0&Increment=50&submit=Search

> <Ligand HET ID in PDB>


> <PDB ID(s) for Ligand-Target Complex>


> <PubChem CID>
122193390

> <PubChem SID>
104018907

> <ChEBI ID of Ligand>


> <ChEMBL ID of Ligand>


> <DrugBank ID of Ligand>


> <IUPHAR_GRAC ID of Ligand>


> <KEGG ID of Ligand>


> <ZINC ID of Ligand>
ZINC29314677

> <Number of Protein Chains in Target (>1 implies a multichain complex)>
1

> <BindingDB Target Chain Sequence>
MAAQKNNAPKEYGADSITILEGLEAVRKRPGMYIGSTGERGLHHLIWEVVDNAVDEAMAGFATRVDVKIHADGSVEVRDDGRGIPVEMHATGMPTIDVVMTQLHAGGKFDGETYAVSGGLHGVGVSVVNALSTRLEATVLRDGYEWFQYYDRSVPGKLKQGGETKETGTTIRFWADPEIFETTDYNFETVARRLQEMAFLNKGLTIELTDERVTAEEVVDDVVKDTAEAPKTADEKAAEATGPSKVKHRVFHYPGGLVDYVKHINRTKTPIQQSIIDFDGKGPGHEVEIAMQWNAGYSESVHTFANTINTHEGGTHEEGFRAALTSVVNRYAKDKKLLKDKDPNLTGDDIREGLAAVISVKVAEPQFEGQTKTKLGNTEVKSFVQKICNEQLQHWFEANPAEAKTVVNKAVSSAQARIAARKARELVRRKSATDIGGLPGKLADCRSTDPSKSELYVVEGDSAGGSAKSGRDSMFQAILPLRGKIINVEKARIDRVLKNTEVQSIITALGTGIHDEFDISKLRYHKIVLMADADVDGQHISTLLLTLLFRFMKPLVENGHIFLAQPPLYKLKWQRSEPEFAYSDRERDGLLEAGRAAGKKINVDDGIQRYKGLGEMDAKELWETTMDPSVRVLRQVTLDDAAAADELFSILMGEDVEARRSFITRNAKDVRFLDV

> <PDB ID(s) of Target Chain>
4BAE

> <UniProt (SwissProt) Recommended Name of Target Chain>
DNA gyrase subunit B

> <UniProt (SwissProt) Entry Name of Target Chain>
GYRB_MYCSM

> <UniProt (SwissProt) Primary ID of Target Chain>
P0C559

> <UniProt (SwissProt) Secondary ID(s) of Target Chain>
P48355,Q59555

> <UniProt (SwissProt) Alternative ID(s) of Target Chain>


> <UniProt (TrEMBL) Submitted Name of Target Chain>


> <UniProt (TrEMBL) Entry Name of Target Chain>


> <UniProt (TrEMBL) Primary ID of Target Chain>


> <UniProt (TrEMBL) Secondary ID(s) of Target Chain>


> <UniProt (TrEMBL) Alternative ID(s) of Target Chain>


$$$$

  Mrv0541 03201611132D          

 29 32  0  0  0  0            999 V2000
    9.0233   -4.5175    0.0000 O   0  0  0  0  0  0  0  0  0  0  0  0
    9.5080   -3.8520    0.0000 C   0  0  0  0  0  0  0  0  0  0  0  0
    9.0233   -3.1866    0.0000 C   0  0  0  0  0  0  0  0  0  0  0  0
    8.2387   -3.4395    0.0000 C   0  0  0  0  0  0  0  0  0  0  0  0
    8.2387   -4.2645    0.0000 C   0  0  0  0  0  0  0  0  0  0  0  0
    7.5228   -3.0270    0.0000 C   0  0  0  0  0  0  0  0  0  0  0  0
    6.8070   -3.4395    0.0000 C   0  0  0  0  0  0  0  0  0  0  0  0
    6.8070   -4.2645    0.0000 C   0  0  0  0  0  0  0  0  0  0  0  0
    7.5228   -4.6770    0.0000 C   0  0  0  0  0  0  0  0  0  0  0  0
   10.3330   -3.8520    0.0000 C   0  0  0  0  0  0  0  0  0  0  0  0
   10.7455   -4.5679    0.0000 O   0  0  0  0  0  0  0  0  0  0  0  0
   10.7455   -3.1362    0.0000 O   0  0  0  0  0  0  0  0  0  0  0  0
    6.0952   -3.0270    0.0000 N   0  0  0  0  0  0  0  0  0  0  0  0
    5.3794   -3.4395    0.0000 C   0  0  0  0  0  0  0  0  0  0  0  0
    4.6635   -3.0270    0.0000 C   0  0  0  0  0  0  0  0  0  0  0  0
    4.6635   -2.2020    0.0000 N   0  0  0  0  0  0  0  0  0  0  0  0
    5.3794   -1.7895    0.0000 C   0  0  0  0  0  0  0  0  0  0  0  0
    6.0952   -2.2020    0.0000 C   0  0  0  0  0  0  0  0  0  0  0  0
    3.9519   -1.7895    0.0000 C   0  0  0  0  0  0  0  0  0  0  0  0
    3.2360   -2.2020    0.0000 N   0  0  0  0  0  0  0  0  0  0  0  0
    3.9519   -0.9646    0.0000 O   0  0  0  0  0  0  0  0  0  0  0  0
    2.5201   -1.7895    0.0000 C   0  0  0  0  0  0  0  0  0  0  0  0
    1.8043   -2.2020    0.0000 C   0  0  0  0  0  0  0  0  0  0  0  0
    1.0925   -1.7895    0.0000 C   0  0  0  0  0  0  0  0  0  0  0  0
    1.0925   -0.9646    0.0000 C   0  0  0  0  0  0  0  0  0  0  0  0
    1.8043   -0.5521    0.0000 C   0  0  0  0  0  0  0  0  0  0  0  0
    2.5201   -0.9646    0.0000 C   0  0  0  0  0  0  0  0  0  0  0  0
   11.5705   -3.1362    0.0000 C   0  0  0  0  0  0  0  0  0  0  0  0
   11.9830   -2.4245    0.0000 C   0  0  0  0  0  0  0  0  0  0  0  0
  1  2  4  0  0  0  0
  2  3  4  0  0  0  0
  3  4  4  0  0  0  0
  4  5  4  0  0  0  0
  1  5  4  0  0  0  0
  6  7  4  0  0  0  0
  7  8  4  0  0  0  0
  8  9  4  0  0  0  0
  5  9  4  0  0  0  0
  4  6  4  0  0  0  0
 10 11  2  0  0  0  0
 10 12  1  0  0  0  0
  2 10  1  0  0  0  0
 13 14  1  0  0  0  0
 14 15  1  0  0  0  0
 15 16  1  0  0  0  0
 16 17  1  0  0  0  0
 17 18  1  0  0  0  0
 13 18  1  0  0  0  0
 19 20  1  0  0  0  0
 19 21  2  0  0  0  0
 22 23  4  0  0  0  0
 23 24  4  0  0  0  0
 24 25  4  0  0  0  0
 25 26  4  0  0  0  0
 26 27  4  0  0  0  0
 22 27  4  0  0  0  0
 20 22  1  0  0  0  0
 16 19  1  0  0  0  0
  7 13  1  0  0  0  0
 28 29  1  0  0  0  0
 12 28  1  0  0  0  0
M  END
> <From> 
www.bindingDB.org

> <BindingDB Reactant_set_id>
50254211

> <Ligand InChI>
InChI=1S/C22H23N3O4/c1-2-28-21(26)20-15-16-14-18(8-9-19(16)29-20)24-10-12-25(13-11-24)22(27)23-17-6-4-3-5-7-17/h3-9,14-15H,2,10-13H2,1H3,(H,23,27)

> <Ligand InChI Key>
MWEVIYLWRNWLGZ-UHFFFAOYSA-N

> <BindingDB MonomerID>
50037193

> <BindingDB Ligand Name>
CHEMBL3355782

> <Target Name Assigned by Curator or DataSource>
DNA gyrase subunit B

> <Target Source Organism According to Curator or DataSource>


> <Ki (nM)>


> <IC50 (nM)>
 16890

> <Kd (nM)>


> <EC50 (nM)>


> <kon (M-1-s-1)>


> <koff (s-1)>


> <pH>


> <Temp C>


> <Curation/DataSource>
ChEMBL

> <Article DOI>
10.1016/j.bmc.2014.10.016

> <PMID>
25456076

> <PubChem AID>


> <Patent Number>


> <Authors>
Reddy, KI; Srihari, K; Renuka, J; Sree, KS; Chuppala, A; Jeankumar, VU; Sridevi, JP; Babu, KS; Yogeeswari, P; Sriram, D

> <Institution>
TBA

> <Link to Ligand in BindingDB>
http://www.bindingdb.org/bind/chemsearch/marvin/MolStructure.jsp?monomerid=50037193

> <Link to Ligand-Target Pair in BindingDB>
http://www.bindingdb.org/jsp/dbsearch/PrimarySearch_ki.jsp?energyterm=kJ/mole&tag=pol&polymerid=50006452&target=DNA+gyrase+subunit+B&column=ki&startPg=0&Increment=50&submit=Search

> <Link to Ligand-Target Pair in BindingDB>
http://www.bindingdb.org/jsp/dbsearch/PrimarySearch_ki.jsp?energyterm=kJ/mole&tag=r21&monomerid=50037193&enzyme=DNA+gyrase+subunit+B&column=ki&startPg=0&Increment=50&submit=Search

> <Ligand HET ID in PDB>


> <PDB ID(s) for Ligand-Target Complex>


> <PubChem CID>
118721082

> <PubChem SID>
313067070

> <ChEBI ID of Ligand>


> <ChEMBL ID of Ligand>


> <DrugBank ID of Ligand>


> <IUPHAR_GRAC ID of Ligand>


> <KEGG ID of Ligand>


> <ZINC ID of Ligand>


> <Number of Protein Chains in Target (>1 implies a multichain complex)>
1

> <BindingDB Target Chain Sequence>
MAAQKNNAPKEYGADSITILEGLEAVRKRPGMYIGSTGERGLHHLIWEVVDNAVDEAMAGFATRVDVKIHADGSVEVRDDGRGIPVEMHATGMPTIDVVMTQLHAGGKFDGETYAVSGGLHGVGVSVVNALSTRLEATVLRDGYEWFQYYDRSVPGKLKQGGETKETGTTIRFWADPEIFETTDYNFETVARRLQEMAFLNKGLTIELTDERVTAEEVVDDVVKDTAEAPKTADEKAAEATGPSKVKHRVFHYPGGLVDYVKHINRTKTPIQQSIIDFDGKGPGHEVEIAMQWNAGYSESVHTFANTINTHEGGTHEEGFRAALTSVVNRYAKDKKLLKDKDPNLTGDDIREGLAAVISVKVAEPQFEGQTKTKLGNTEVKSFVQKICNEQLQHWFEANPAEAKTVVNKAVSSAQARIAARKARELVRRKSATDIGGLPGKLADCRSTDPSKSELYVVEGDSAGGSAKSGRDSMFQAILPLRGKIINVEKARIDRVLKNTEVQSIITALGTGIHDEFDISKLRYHKIVLMADADVDGQHISTLLLTLLFRFMKPLVENGHIFLAQPPLYKLKWQRSEPEFAYSDRERDGLLEAGRAAGKKINVDDGIQRYKGLGEMDAKELWETTMDPSVRVLRQVTLDDAAAADELFSILMGEDVEARRSFITRNAKDVRFLDV

> <PDB ID(s) of Target Chain>
4BAE

> <UniProt (SwissProt) Recommended Name of Target Chain>
DNA gyrase subunit B

> <UniProt (SwissProt) Entry Name of Target Chain>
GYRB_MYCSM

> <UniProt (SwissProt) Primary ID of Target Chain>
P0C559

> <UniProt (SwissProt) Secondary ID(s) of Target Chain>
P48355,Q59555

> <UniProt (SwissProt) Alternative ID(s) of Target Chain>


> <UniProt (TrEMBL) Submitted Name of Target Chain>


> <UniProt (TrEMBL) Entry Name of Target Chain>


> <UniProt (TrEMBL) Primary ID of Target Chain>


> <UniProt (TrEMBL) Secondary ID(s) of Target Chain>


> <UniProt (TrEMBL) Alternative ID(s) of Target Chain>


$$$$

  SciTegic12211723372D

 23 26  0  0  0  0            999 V2000
   12.3859  -13.1295    0.0000 N   0  0
   13.0975  -12.7252    0.0000 C   0  0
   13.0983  -11.9080    0.0000 C   0  0
   12.3958  -11.4952    0.0000 C   0  0
   11.6843  -11.8995    0.0000 C   0  0
   10.9776  -11.4908    0.0000 C   0  0
   10.2702  -11.8951    0.0000 C   0  0
   10.2653  -12.7123    0.0000 C   0  0
   10.9719  -13.1251    0.0000 C   0  0
   11.6834  -12.7167    0.0000 C   0  0
    9.5579  -13.1166    0.0000 Cl  0  0
   12.3966  -10.6780    0.0000 N   0  0
   13.1040  -10.2737    0.0000 C   0  0
   13.1090   -9.4565    0.0000 C   0  0
   12.4024   -9.0436    0.0000 N   0  0
   11.6949   -9.4479    0.0000 C   0  0
   11.6900  -10.2651    0.0000 C   0  0
   12.4073   -8.2265    0.0000 C   0  0
   13.2037   -7.0081    0.0000 N   0  0
   13.1147   -7.8221    0.0000 C   0  0
   13.8600   -8.1569    0.0000 C   0  0
   14.4115   -7.5496    0.0000 C   0  0
   14.0072   -6.8422    0.0000 C   0  0
  1  2  2  0
  2  3  1  0
  3  4  2  0
  4  5  1  0
  5  6  2  0
  6  7  1  0
  7  8  2  0
  8  9  1  0
  9 10  2  0
  1 10  1  0
  5 10  1  0
  8 11  1  0
 12 13  1  0
 13 14  1  0
 14 15  1  0
 15 16  1  0
 16 17  1  0
 12 17  1  0
 19 20  1  0
 20 21  2  0
 21 22  1  0
 22 23  2  0
 19 23  1  0
 18 20  1  0
 15 18  1  0
  4 12  1  0
M  END
> <From> 
www.bindingDB.org

> <BindingDB Reactant_set_id>
50528059

> <Ligand InChI>
InChI=1S/C18H19ClN4/c19-14-3-4-16-17(12-14)21-7-5-18(16)23-10-8-22(9-11-23)13-15-2-1-6-20-15/h1-7,12,20H,8-11,13H2

> <Ligand InChI Key>
NGXRVOHMJTWPLH-UHFFFAOYSA-N

> <BindingDB MonomerID>
50202014

> <BindingDB Ligand Name>
CHEMBL3937440

> <Target Name Assigned by Curator or DataSource>
DNA gyrase subunit B

> <Target Source Organism According to Curator or DataSource>


> <Ki (nM)>


> <IC50 (nM)>
 16900

> <Kd (nM)>


> <EC50 (nM)>


> <kon (M-1-s-1)>


> <koff (s-1)>


> <pH>


> <Temp C>


> <Curation/DataSource>
ChEMBL

> <Article DOI>
10.1016/j.ejmech.2016.06.042

> <PMID>
27371925

> <PubChem AID>


> <Patent Number>


> <Authors>
Jeankumar, VU; Reshma, RS; Vats, R; Janupally, R; Saxena, S; Yogeeswari, P; Sriram, D

> <Institution>
Birla Institute of Technology&amp; Science-Pilani

> <Link to Ligand in BindingDB>
http://www.bindingdb.org/bind/chemsearch/marvin/MolStructure.jsp?monomerid=50202014

> <Link to Ligand-Target Pair in BindingDB>
http://www.bindingdb.org/jsp/dbsearch/PrimarySearch_ki.jsp?energyterm=kJ/mole&tag=pol&polymerid=50006452&target=DNA+gyrase+subunit+B&column=ki&startPg=0&Increment=50&submit=Search

> <Link to Ligand-Target Pair in BindingDB>
http://www.bindingdb.org/jsp/dbsearch/PrimarySearch_ki.jsp?energyterm=kJ/mole&tag=r21&monomerid=50202014&enzyme=DNA+gyrase+subunit+B&column=ki&startPg=0&Increment=50&submit=Search

> <Ligand HET ID in PDB>


> <PDB ID(s) for Ligand-Target Complex>


> <PubChem CID>
134149487

> <PubChem SID>
375979573

> <ChEBI ID of Ligand>


> <ChEMBL ID of Ligand>


> <DrugBank ID of Ligand>


> <IUPHAR_GRAC ID of Ligand>


> <KEGG ID of Ligand>


> <ZINC ID of Ligand>


> <Number of Protein Chains in Target (>1 implies a multichain complex)>
1

> <BindingDB Target Chain Sequence>
MAAQKNNAPKEYGADSITILEGLEAVRKRPGMYIGSTGERGLHHLIWEVVDNAVDEAMAGFATRVDVKIHADGSVEVRDDGRGIPVEMHATGMPTIDVVMTQLHAGGKFDGETYAVSGGLHGVGVSVVNALSTRLEATVLRDGYEWFQYYDRSVPGKLKQGGETKETGTTIRFWADPEIFETTDYNFETVARRLQEMAFLNKGLTIELTDERVTAEEVVDDVVKDTAEAPKTADEKAAEATGPSKVKHRVFHYPGGLVDYVKHINRTKTPIQQSIIDFDGKGPGHEVEIAMQWNAGYSESVHTFANTINTHEGGTHEEGFRAALTSVVNRYAKDKKLLKDKDPNLTGDDIREGLAAVISVKVAEPQFEGQTKTKLGNTEVKSFVQKICNEQLQHWFEANPAEAKTVVNKAVSSAQARIAARKARELVRRKSATDIGGLPGKLADCRSTDPSKSELYVVEGDSAGGSAKSGRDSMFQAILPLRGKIINVEKARIDRVLKNTEVQSIITALGTGIHDEFDISKLRYHKIVLMADADVDGQHISTLLLTLLFRFMKPLVENGHIFLAQPPLYKLKWQRSEPEFAYSDRERDGLLEAGRAAGKKINVDDGIQRYKGLGEMDAKELWETTMDPSVRVLRQVTLDDAAAADELFSILMGEDVEARRSFITRNAKDVRFLDV

> <PDB ID(s) of Target Chain>
4BAE

> <UniProt (SwissProt) Recommended Name of Target Chain>
DNA gyrase subunit B

> <UniProt (SwissProt) Entry Name of Target Chain>
GYRB_MYCSM

> <UniProt (SwissProt) Primary ID of Target Chain>
P0C559

> <UniProt (SwissProt) Secondary ID(s) of Target Chain>
P48355,Q59555

> <UniProt (SwissProt) Alternative ID(s) of Target Chain>


> <UniProt (TrEMBL) Submitted Name of Target Chain>


> <UniProt (TrEMBL) Entry Name of Target Chain>


> <UniProt (TrEMBL) Primary ID of Target Chain>


> <UniProt (TrEMBL) Secondary ID(s) of Target Chain>


> <UniProt (TrEMBL) Alternative ID(s) of Target Chain>


$$$$

  SciTegic04201612532D

 35 38  0  0  0  0            999 V2000
   -1.2964    1.4973    0.0000 N   0  0
   -2.6111    0.7486    0.0000 C   0  0
   -2.6111   -0.7486    0.0000 C   0  0
   -1.2964   -1.4973    0.0000 C   0  0
    0.0000   -0.7486    0.0000 C   0  0
    1.2964   -1.4973    0.0000 C   0  0
    2.5929   -0.7486    0.0000 C   0  0
    2.5929    0.7486    0.0000 C   0  0
    1.2964    1.4973    0.0000 C   0  0
    0.0000    0.7486    0.0000 C   0  0
   -3.9122   -1.4966    0.0000 C   0  0
   -3.9138   -2.4966    0.0000 O   0  0
   -5.2109   -0.7445    0.0000 O   0  0
   -1.2907   -2.9981    0.0000 N   0  0
   -2.5870   -3.7544    0.0000 C   0  0
   -2.5835   -5.2544    0.0000 C   0  0
   -3.8807   -6.0076    0.0000 C   0  0
   -5.1815   -5.2608    0.0000 C   0  0
   -5.1852   -3.7608    0.0000 C   0  0
   -3.8880   -3.0076    0.0000 C   0  0
   -6.4810   -6.0117    0.0000 N   0  0
   -7.7815   -5.2626    0.0000 C   0  0
   -9.0810   -6.0135    0.0000 C   0  0
  -10.3815   -5.2644    0.0000 C   0  0
  -14.2755   -7.5217    0.0000 N   0  0
  -14.2791   -6.0217    0.0000 C   0  0
  -12.9819   -5.2686    0.0000 C   0  0
  -11.6810   -6.0154    0.0000 N   0  0
  -11.6774   -7.5154    0.0000 C   0  0
  -12.9746   -8.2686    0.0000 C   0  0
   -6.5121   -1.4924    0.0000 C   0  0
   -7.5506   -0.8910    0.0000 C   0  0
  -15.5719   -8.2779    0.0000 C   0  0
  -15.5672   -9.4779    0.0000 C   0  0
    3.6321   -1.3486    0.0000 F   0  0
  1  2  2  0
  2  3  1  0
  3  4  2  0
  4  5  1  0
  5  6  2  0
  6  7  1  0
  7  8  2  0
  8  9  1  0
  9 10  2  0
  1 10  1  0
  5 10  1  0
 11 12  2  0
 11 13  1  0
  3 11  1  0
 15 16  1  0
 16 17  2  0
 17 18  1  0
 18 19  2  0
 19 20  1  0
 15 20  2  0
 22 23  1  0
 23 24  1  0
 21 22  1  0
 25 26  1  0
 26 27  1  0
 27 28  1  0
 28 29  1  0
 29 30  1  0
 25 30  1  0
 24 28  1  0
 18 21  1  0
 14 15  1  0
  4 14  1  0
 31 32  1  0
 13 31  1  0
 25 33  1  0
 33 34  1  0
  7 35  1  0
M  END
> <From> 
www.bindingDB.org

> <BindingDB Reactant_set_id>
50426780

> <Ligand InChI>
InChI=1S/C27H34FN5O2/c1-3-32-14-16-33(17-15-32)13-5-12-29-21-7-9-22(10-8-21)31-26-23-18-20(28)6-11-25(23)30-19-24(26)27(34)35-4-2/h6-11,18-19,29H,3-5,12-17H2,1-2H3,(H,30,31)

> <Ligand InChI Key>
BAWQXJGORYTSKM-UHFFFAOYSA-N

> <BindingDB MonomerID>
50126824

> <BindingDB Ligand Name>
CHEMBL3628438

> <Target Name Assigned by Curator or DataSource>
DNA gyrase subunit B

> <Target Source Organism According to Curator or DataSource>


> <Ki (nM)>


> <IC50 (nM)>
 16920

> <Kd (nM)>


> <EC50 (nM)>


> <kon (M-1-s-1)>


> <koff (s-1)>


> <pH>


> <Temp C>


> <Curation/DataSource>
ChEMBL

> <Article DOI>
10.1016/j.ejmech.2015.06.032

> <PMID>
26318054

> <PubChem AID>


> <Patent Number>


> <Authors>
Medapi, B; Suryadevara, P; Renuka, J; Sridevi, JP; Yogeeswari, P; Sriram, D

> <Institution>
Birla Institute of Technology&amp;Science

> <Link to Ligand in BindingDB>
http://www.bindingdb.org/bind/chemsearch/marvin/MolStructure.jsp?monomerid=50126824

> <Link to Ligand-Target Pair in BindingDB>
http://www.bindingdb.org/jsp/dbsearch/PrimarySearch_ki.jsp?energyterm=kJ/mole&tag=pol&polymerid=50006452&target=DNA+gyrase+subunit+B&column=ki&startPg=0&Increment=50&submit=Search

> <Link to Ligand-Target Pair in BindingDB>
http://www.bindingdb.org/jsp/dbsearch/PrimarySearch_ki.jsp?energyterm=kJ/mole&tag=r21&monomerid=50126824&enzyme=DNA+gyrase+subunit+B&column=ki&startPg=0&Increment=50&submit=Search

> <Ligand HET ID in PDB>


> <PDB ID(s) for Ligand-Target Complex>


> <PubChem CID>
122193451

> <PubChem SID>
104018892

> <ChEBI ID of Ligand>


> <ChEMBL ID of Ligand>


> <DrugBank ID of Ligand>


> <IUPHAR_GRAC ID of Ligand>


> <KEGG ID of Ligand>


> <ZINC ID of Ligand>
ZINC03875296

> <Number of Protein Chains in Target (>1 implies a multichain complex)>
1

> <BindingDB Target Chain Sequence>
MAAQKNNAPKEYGADSITILEGLEAVRKRPGMYIGSTGERGLHHLIWEVVDNAVDEAMAGFATRVDVKIHADGSVEVRDDGRGIPVEMHATGMPTIDVVMTQLHAGGKFDGETYAVSGGLHGVGVSVVNALSTRLEATVLRDGYEWFQYYDRSVPGKLKQGGETKETGTTIRFWADPEIFETTDYNFETVARRLQEMAFLNKGLTIELTDERVTAEEVVDDVVKDTAEAPKTADEKAAEATGPSKVKHRVFHYPGGLVDYVKHINRTKTPIQQSIIDFDGKGPGHEVEIAMQWNAGYSESVHTFANTINTHEGGTHEEGFRAALTSVVNRYAKDKKLLKDKDPNLTGDDIREGLAAVISVKVAEPQFEGQTKTKLGNTEVKSFVQKICNEQLQHWFEANPAEAKTVVNKAVSSAQARIAARKARELVRRKSATDIGGLPGKLADCRSTDPSKSELYVVEGDSAGGSAKSGRDSMFQAILPLRGKIINVEKARIDRVLKNTEVQSIITALGTGIHDEFDISKLRYHKIVLMADADVDGQHISTLLLTLLFRFMKPLVENGHIFLAQPPLYKLKWQRSEPEFAYSDRERDGLLEAGRAAGKKINVDDGIQRYKGLGEMDAKELWETTMDPSVRVLRQVTLDDAAAADELFSILMGEDVEARRSFITRNAKDVRFLDV

> <PDB ID(s) of Target Chain>
4BAE

> <UniProt (SwissProt) Recommended Name of Target Chain>
DNA gyrase subunit B

> <UniProt (SwissProt) Entry Name of Target Chain>
GYRB_MYCSM

> <UniProt (SwissProt) Primary ID of Target Chain>
P0C559

> <UniProt (SwissProt) Secondary ID(s) of Target Chain>
P48355,Q59555

> <UniProt (SwissProt) Alternative ID(s) of Target Chain>


> <UniProt (TrEMBL) Submitted Name of Target Chain>


> <UniProt (TrEMBL) Entry Name of Target Chain>


> <UniProt (TrEMBL) Primary ID of Target Chain>


> <UniProt (TrEMBL) Secondary ID(s) of Target Chain>


> <UniProt (TrEMBL) Alternative ID(s) of Target Chain>


$$$$

  SciTegic09081514182D

 30 33  0  0  0  0            999 V2000
   -2.6111    0.7486    0.0000 C   0  0
   -2.6111   -0.7486    0.0000 C   0  0
   -1.2964   -1.4973    0.0000 C   0  0
   -1.2964    1.4973    0.0000 C   0  0
    0.0000    0.7486    0.0000 C   0  0
    0.0000   -0.7486    0.0000 C   0  0
    1.2964   -1.4973    0.0000 N   0  0
    2.5929   -0.7486    0.0000 C   0  0
    2.5929    0.7486    0.0000 C   0  0
    1.2964    1.4973    0.0000 C   0  0
    1.2964    2.9980    0.0000 N   0  0
   -0.0014    3.7503    0.0000 C   0  0
    0.0011    5.2503    0.0000 C   0  0
    1.3014    5.9981    0.0000 C   0  0
    2.5992    5.2460    0.0000 C   0  0
    2.5967    3.7460    0.0000 C   0  0
    1.3069    7.4990    0.0000 N   0  0
    2.6090    8.2454    0.0000 C   0  0
    3.6462    7.6419    0.0000 O   0  0
    2.6145    9.7462    0.0000 N   0  0
    3.9166   10.4926    0.0000 C   0  0
    3.9243   11.9926    0.0000 C   0  0
    5.2272   12.7360    0.0000 C   0  0
    6.5224   11.9794    0.0000 C   0  0
    6.5147   10.4794    0.0000 C   0  0
    5.2119    9.7360    0.0000 C   0  0
    3.6321   -1.3486    0.0000 C   0  0
    7.8275   12.7204    0.0000 N   0  3
    8.8628   12.1137    0.0000 O   0  0
    7.8357   13.9204    0.0000 O   0  5
  1  2  2  0
  2  3  1  0
  3  6  2  0
  5  4  2  0
  4  1  1  0
  5  6  1  0
  6  7  1  0
  7  8  2  0
  8  9  1  0
  9 10  2  0
 10  5  1  0
 11 12  1  0
 11 16  1  0
 12 13  1  0
 13 14  1  0
 14 15  1  0
 15 16  1  0
 10 11  1  0
 14 17  1  0
 17 18  1  0
 18 19  2  0
 18 20  1  0
 20 21  1  0
 21 22  2  0
 22 23  1  0
 23 24  2  0
 24 25  1  0
 25 26  2  0
 26 21  1  0
  8 27  1  0
 28 29  2  0
 28 30  1  0
 24 28  1  0
M  CHG  2  28   1  30  -1
M  END
> <From> 
www.bindingDB.org

> <BindingDB Reactant_set_id>
50303817

> <Ligand InChI>
InChI=1S/C22H23N5O3/c1-15-14-21(19-4-2-3-5-20(19)23-15)26-12-10-17(11-13-26)25-22(28)24-16-6-8-18(9-7-16)27(29)30/h2-9,14,17H,10-13H2,1H3,(H2,24,25,28)

> <Ligand InChI Key>
DYHGYKOMJXXAOM-UHFFFAOYSA-N

> <BindingDB MonomerID>
50066964

> <BindingDB Ligand Name>
CHEMBL3403245

> <Target Name Assigned by Curator or DataSource>
DNA gyrase subunit B

> <Target Source Organism According to Curator or DataSource>


> <Ki (nM)>


> <IC50 (nM)>
 16950

> <Kd (nM)>


> <EC50 (nM)>


> <kon (M-1-s-1)>


> <koff (s-1)>


> <pH>


> <Temp C>


> <Curation/DataSource>
ChEMBL

> <Article DOI>
10.1016/j.bmc.2015.03.004

> <PMID>
25801151

> <PubChem AID>


> <Patent Number>


> <Authors>
Medapi, B; Renuka, J; Saxena, S; Sridevi, JP; Medishetti, R; Kulkarni, P; Yogeeswari, P; Sriram, D

> <Institution>
Birla Institute of Technology&amp; Science-Pilani

> <Link to Ligand in BindingDB>
http://www.bindingdb.org/bind/chemsearch/marvin/MolStructure.jsp?monomerid=50066964

> <Link to Ligand-Target Pair in BindingDB>
http://www.bindingdb.org/jsp/dbsearch/PrimarySearch_ki.jsp?energyterm=kJ/mole&tag=pol&polymerid=50006452&target=DNA+gyrase+subunit+B&column=ki&startPg=0&Increment=50&submit=Search

> <Link to Ligand-Target Pair in BindingDB>
http://www.bindingdb.org/jsp/dbsearch/PrimarySearch_ki.jsp?energyterm=kJ/mole&tag=r21&monomerid=50066964&enzyme=DNA+gyrase+subunit+B&column=ki&startPg=0&Increment=50&submit=Search

> <Ligand HET ID in PDB>


> <PDB ID(s) for Ligand-Target Complex>


> <PubChem CID>
118729661

> <PubChem SID>
103961500

> <ChEBI ID of Ligand>


> <ChEMBL ID of Ligand>
CHEMBL285477

> <DrugBank ID of Ligand>


> <IUPHAR_GRAC ID of Ligand>


> <KEGG ID of Ligand>


> <ZINC ID of Ligand>
ZINC13781220

> <Number of Protein Chains in Target (>1 implies a multichain complex)>
1

> <BindingDB Target Chain Sequence>
MAAQKNNAPKEYGADSITILEGLEAVRKRPGMYIGSTGERGLHHLIWEVVDNAVDEAMAGFATRVDVKIHADGSVEVRDDGRGIPVEMHATGMPTIDVVMTQLHAGGKFDGETYAVSGGLHGVGVSVVNALSTRLEATVLRDGYEWFQYYDRSVPGKLKQGGETKETGTTIRFWADPEIFETTDYNFETVARRLQEMAFLNKGLTIELTDERVTAEEVVDDVVKDTAEAPKTADEKAAEATGPSKVKHRVFHYPGGLVDYVKHINRTKTPIQQSIIDFDGKGPGHEVEIAMQWNAGYSESVHTFANTINTHEGGTHEEGFRAALTSVVNRYAKDKKLLKDKDPNLTGDDIREGLAAVISVKVAEPQFEGQTKTKLGNTEVKSFVQKICNEQLQHWFEANPAEAKTVVNKAVSSAQARIAARKARELVRRKSATDIGGLPGKLADCRSTDPSKSELYVVEGDSAGGSAKSGRDSMFQAILPLRGKIINVEKARIDRVLKNTEVQSIITALGTGIHDEFDISKLRYHKIVLMADADVDGQHISTLLLTLLFRFMKPLVENGHIFLAQPPLYKLKWQRSEPEFAYSDRERDGLLEAGRAAGKKINVDDGIQRYKGLGEMDAKELWETTMDPSVRVLRQVTLDDAAAADELFSILMGEDVEARRSFITRNAKDVRFLDV

> <PDB ID(s) of Target Chain>
4BAE

> <UniProt (SwissProt) Recommended Name of Target Chain>
DNA gyrase subunit B

> <UniProt (SwissProt) Entry Name of Target Chain>
GYRB_MYCSM

> <UniProt (SwissProt) Primary ID of Target Chain>
P0C559

> <UniProt (SwissProt) Secondary ID(s) of Target Chain>
P48355,Q59555

> <UniProt (SwissProt) Alternative ID(s) of Target Chain>


> <UniProt (TrEMBL) Submitted Name of Target Chain>


> <UniProt (TrEMBL) Entry Name of Target Chain>


> <UniProt (TrEMBL) Primary ID of Target Chain>


> <UniProt (TrEMBL) Secondary ID(s) of Target Chain>


> <UniProt (TrEMBL) Alternative ID(s) of Target Chain>


$$$$

  SciTegic09081514182D

 27 30  0  0  0  0            999 V2000
   -2.6111    0.7486    0.0000 C   0  0
   -2.6111   -0.7486    0.0000 C   0  0
   -1.2964   -1.4973    0.0000 C   0  0
   -1.2964    1.4973    0.0000 C   0  0
    0.0000    0.7486    0.0000 C   0  0
    0.0000   -0.7486    0.0000 C   0  0
    1.2964   -1.4973    0.0000 N   0  0
    2.5929   -0.7486    0.0000 C   0  0
    2.5929    0.7486    0.0000 C   0  0
    1.2964    1.4973    0.0000 C   0  0
    1.2964    2.9980    0.0000 N   0  0
   -0.0014    3.7503    0.0000 C   0  0
    0.0011    5.2503    0.0000 C   0  0
    1.3014    5.9981    0.0000 C   0  0
    2.5992    5.2460    0.0000 C   0  0
    2.5967    3.7460    0.0000 C   0  0
    1.3069    7.4990    0.0000 N   0  0
    2.6090    8.2454    0.0000 C   0  0
    3.6462    7.6419    0.0000 O   0  0
    2.6145    9.7462    0.0000 N   0  0
    3.9166   10.4926    0.0000 C   0  0
    3.9243   11.9926    0.0000 C   0  0
    5.2272   12.7360    0.0000 C   0  0
    6.5224   11.9794    0.0000 C   0  0
    6.5147   10.4794    0.0000 C   0  0
    5.2119    9.7360    0.0000 C   0  0
    3.6321   -1.3486    0.0000 C   0  0
  1  2  2  0
  2  3  1  0
  3  6  2  0
  5  4  2  0
  4  1  1  0
  5  6  1  0
  6  7  1  0
  7  8  2  0
  8  9  1  0
  9 10  2  0
 10  5  1  0
 11 12  1  0
 11 16  1  0
 12 13  1  0
 13 14  1  0
 14 15  1  0
 15 16  1  0
 10 11  1  0
 14 17  1  0
 17 18  1  0
 18 19  2  0
 18 20  1  0
 20 21  1  0
 21 22  2  0
 22 23  1  0
 23 24  2  0
 24 25  1  0
 25 26  2  0
 26 21  1  0
  8 27  1  0
M  END
> <From> 
www.bindingDB.org

> <BindingDB Reactant_set_id>
50303827

> <Ligand InChI>
InChI=1S/C22H24N4O/c1-16-15-21(19-9-5-6-10-20(19)23-16)26-13-11-18(12-14-26)25-22(27)24-17-7-3-2-4-8-17/h2-10,15,18H,11-14H2,1H3,(H2,24,25,27)

> <Ligand InChI Key>
PPRUVNWWUQSWBY-UHFFFAOYSA-N

> <BindingDB MonomerID>
50066967

> <BindingDB Ligand Name>
CHEMBL3403242

> <Target Name Assigned by Curator or DataSource>
DNA gyrase subunit B

> <Target Source Organism According to Curator or DataSource>


> <Ki (nM)>


> <IC50 (nM)>
 17260

> <Kd (nM)>


> <EC50 (nM)>


> <kon (M-1-s-1)>


> <koff (s-1)>


> <pH>


> <Temp C>


> <Curation/DataSource>
ChEMBL

> <Article DOI>
10.1016/j.bmc.2015.03.004

> <PMID>
25801151

> <PubChem AID>


> <Patent Number>


> <Authors>
Medapi, B; Renuka, J; Saxena, S; Sridevi, JP; Medishetti, R; Kulkarni, P; Yogeeswari, P; Sriram, D

> <Institution>
Birla Institute of Technology&amp; Science-Pilani

> <Link to Ligand in BindingDB>
http://www.bindingdb.org/bind/chemsearch/marvin/MolStructure.jsp?monomerid=50066967

> <Link to Ligand-Target Pair in BindingDB>
http://www.bindingdb.org/jsp/dbsearch/PrimarySearch_ki.jsp?energyterm=kJ/mole&tag=pol&polymerid=50006452&target=DNA+gyrase+subunit+B&column=ki&startPg=0&Increment=50&submit=Search

> <Link to Ligand-Target Pair in BindingDB>
http://www.bindingdb.org/jsp/dbsearch/PrimarySearch_ki.jsp?energyterm=kJ/mole&tag=r21&monomerid=50066967&enzyme=DNA+gyrase+subunit+B&column=ki&startPg=0&Increment=50&submit=Search

> <Ligand HET ID in PDB>


> <PDB ID(s) for Ligand-Target Complex>


> <PubChem CID>
118729658

> <PubChem SID>
103961503

> <ChEBI ID of Ligand>


> <ChEMBL ID of Ligand>


> <DrugBank ID of Ligand>


> <IUPHAR_GRAC ID of Ligand>


> <KEGG ID of Ligand>


> <ZINC ID of Ligand>
ZINC36295082

> <Number of Protein Chains in Target (>1 implies a multichain complex)>
1

> <BindingDB Target Chain Sequence>
MAAQKNNAPKEYGADSITILEGLEAVRKRPGMYIGSTGERGLHHLIWEVVDNAVDEAMAGFATRVDVKIHADGSVEVRDDGRGIPVEMHATGMPTIDVVMTQLHAGGKFDGETYAVSGGLHGVGVSVVNALSTRLEATVLRDGYEWFQYYDRSVPGKLKQGGETKETGTTIRFWADPEIFETTDYNFETVARRLQEMAFLNKGLTIELTDERVTAEEVVDDVVKDTAEAPKTADEKAAEATGPSKVKHRVFHYPGGLVDYVKHINRTKTPIQQSIIDFDGKGPGHEVEIAMQWNAGYSESVHTFANTINTHEGGTHEEGFRAALTSVVNRYAKDKKLLKDKDPNLTGDDIREGLAAVISVKVAEPQFEGQTKTKLGNTEVKSFVQKICNEQLQHWFEANPAEAKTVVNKAVSSAQARIAARKARELVRRKSATDIGGLPGKLADCRSTDPSKSELYVVEGDSAGGSAKSGRDSMFQAILPLRGKIINVEKARIDRVLKNTEVQSIITALGTGIHDEFDISKLRYHKIVLMADADVDGQHISTLLLTLLFRFMKPLVENGHIFLAQPPLYKLKWQRSEPEFAYSDRERDGLLEAGRAAGKKINVDDGIQRYKGLGEMDAKELWETTMDPSVRVLRQVTLDDAAAADELFSILMGEDVEARRSFITRNAKDVRFLDV

> <PDB ID(s) of Target Chain>
4BAE

> <UniProt (SwissProt) Recommended Name of Target Chain>
DNA gyrase subunit B

> <UniProt (SwissProt) Entry Name of Target Chain>
GYRB_MYCSM

> <UniProt (SwissProt) Primary ID of Target Chain>
P0C559

> <UniProt (SwissProt) Secondary ID(s) of Target Chain>
P48355,Q59555

> <UniProt (SwissProt) Alternative ID(s) of Target Chain>


> <UniProt (TrEMBL) Submitted Name of Target Chain>


> <UniProt (TrEMBL) Entry Name of Target Chain>


> <UniProt (TrEMBL) Primary ID of Target Chain>


> <UniProt (TrEMBL) Secondary ID(s) of Target Chain>


> <UniProt (TrEMBL) Alternative ID(s) of Target Chain>


$$$$

  Mrv0541 04171609262D          

 30 33  0  0  0  0            999 V2000
    0.7145   -0.4125    0.0000 C   0  0  0  0  0  0  0  0  0  0  0  0
    0.7145    0.4125    0.0000 C   0  0  0  0  0  0  0  0  0  0  0  0
    0.0000    0.8250    0.0000 C   0  0  0  0  0  0  0  0  0  0  0  0
   -0.7145    0.4125    0.0000 C   0  0  0  0  0  0  0  0  0  0  0  0
   -0.7145   -0.4125    0.0000 C   0  0  0  0  0  0  0  0  0  0  0  0
    0.0000   -0.8250    0.0000 C   0  0  0  0  0  0  0  0  0  0  0  0
   -1.4293   -0.8252    0.0000 C   0  0  0  0  0  0  0  0  0  0  0  0
   -2.1731   -0.4848    0.0000 S   0  0  0  0  0  0  0  0  0  0  0  0
   -2.7242   -1.0988    0.0000 C   0  0  0  0  0  0  0  0  0  0  0  0
   -2.3106   -1.8127    0.0000 C   0  0  0  0  0  0  0  0  0  0  0  0
   -1.5039   -1.6398    0.0000 C   0  0  0  0  0  0  0  0  0  0  0  0
   -2.6429   -2.5667    0.0000 C   0  0  0  0  0  0  0  0  0  0  0  0
   -2.2534   -3.0994    0.0000 O   0  0  0  0  0  0  0  0  0  0  0  0
   -3.2991   -2.6378    0.0000 N   0  0  0  0  0  0  0  0  0  0  0  0
   -3.5437   -1.0123    0.0000 N   0  0  0  0  0  0  0  0  0  0  0  0
   -3.8796   -0.2582    0.0000 C   0  0  0  0  0  0  0  0  0  0  0  0
   -4.7005   -0.1715    0.0000 C   0  0  0  0  0  0  0  0  0  0  0  0
   -3.4915    0.2757    0.0000 O   0  0  0  0  0  0  0  0  0  0  0  0
   -5.0372    0.5816    0.0000 C   0  0  0  0  0  0  0  0  0  0  0  0
   -5.8578    0.6666    0.0000 C   0  0  0  0  0  0  0  0  0  0  0  0
   -6.3417   -0.0017    0.0000 C   0  0  0  0  0  0  0  0  0  0  0  0
   -6.0050   -0.7548    0.0000 C   0  0  0  0  0  0  0  0  0  0  0  0
   -5.1844   -0.8397    0.0000 C   0  0  0  0  0  0  0  0  0  0  0  0
   -7.1630    0.0817    0.0000 O   0  0  0  0  0  0  0  0  0  0  0  0
   -7.6462   -0.5876    0.0000 C   0  0  0  0  0  0  0  0  0  0  0  0
   -8.4671   -0.5055    0.0000 C   0  0  0  0  0  0  0  0  0  0  0  0
   -8.9487   -1.1754    0.0000 C   0  0  0  0  0  0  0  0  0  0  0  0
   -8.6094   -1.9273    0.0000 C   0  0  0  0  0  0  0  0  0  0  0  0
   -7.7885   -2.0094    0.0000 C   0  0  0  0  0  0  0  0  0  0  0  0
   -7.3069   -1.3396    0.0000 C   0  0  0  0  0  0  0  0  0  0  0  0
  1  2  4  0  0  0  0
  2  3  4  0  0  0  0
  3  4  4  0  0  0  0
  4  5  4  0  0  0  0
  5  6  4  0  0  0  0
  6  1  4  0  0  0  0
  7  8  4  0  0  0  0
  8  9  4  0  0  0  0
  9 10  4  0  0  0  0
 10 11  4  0  0  0  0
 11  7  4  0  0  0  0
  5  7  1  0  0  0  0
 10 12  1  0  0  0  0
 12 13  2  0  0  0  0
 12 14  1  0  0  0  0
  9 15  1  0  0  0  0
 15 16  1  0  0  0  0
 16 17  1  0  0  0  0
 16 18  2  0  0  0  0
 17 19  4  0  0  0  0
 19 20  4  0  0  0  0
 20 21  4  0  0  0  0
 21 22  4  0  0  0  0
 22 23  4  0  0  0  0
 23 17  4  0  0  0  0
 21 24  1  0  0  0  0
 24 25  1  0  0  0  0
 25 26  4  0  0  0  0
 26 27  4  0  0  0  0
 27 28  4  0  0  0  0
 28 29  4  0  0  0  0
 29 30  4  0  0  0  0
 30 25  4  0  0  0  0
M  END
> <From> 
www.bindingDB.org

> <BindingDB Reactant_set_id>
50302343

> <Ligand InChI>
InChI=1S/C24H18N2O3S/c25-22(27)20-15-21(16-7-3-1-4-8-16)30-24(20)26-23(28)17-11-13-19(14-12-17)29-18-9-5-2-6-10-18/h1-15H,(H2,25,27)(H,26,28)

> <Ligand InChI Key>
RYBURVSSIPKOKH-UHFFFAOYSA-N

> <BindingDB MonomerID>
50066106

> <BindingDB Ligand Name>
CHEMBL3402950

> <Target Name Assigned by Curator or DataSource>
DNA gyrase subunit B

> <Target Source Organism According to Curator or DataSource>


> <Ki (nM)>


> <IC50 (nM)>
 17330

> <Kd (nM)>


> <EC50 (nM)>


> <kon (M-1-s-1)>


> <koff (s-1)>


> <pH>


> <Temp C>
25.00

> <Curation/DataSource>
ChEMBL

> <Article DOI>
10.1016/j.bmc.2015.02.032

> <PMID>
25766629

> <PubChem AID>


> <Patent Number>


> <Authors>
Saxena, S; Samala, G; Renuka, J; Sridevi, JP; Yogeeswari, P; Sriram, D

> <Institution>
Birla Institute of Technology&amp; Science-Pilani

> <Link to Ligand in BindingDB>
http://www.bindingdb.org/bind/chemsearch/marvin/MolStructure.jsp?monomerid=50066106

> <Link to Ligand-Target Pair in BindingDB>
http://www.bindingdb.org/jsp/dbsearch/PrimarySearch_ki.jsp?energyterm=kJ/mole&tag=pol&polymerid=50006452&target=DNA+gyrase+subunit+B&column=ki&startPg=0&Increment=50&submit=Search

> <Link to Ligand-Target Pair in BindingDB>
http://www.bindingdb.org/jsp/dbsearch/PrimarySearch_ki.jsp?energyterm=kJ/mole&tag=r21&monomerid=50066106&enzyme=DNA+gyrase+subunit+B&column=ki&startPg=0&Increment=50&submit=Search

> <Ligand HET ID in PDB>


> <PDB ID(s) for Ligand-Target Complex>


> <PubChem CID>
16857878

> <PubChem SID>
313071625

> <ChEBI ID of Ligand>


> <ChEMBL ID of Ligand>


> <DrugBank ID of Ligand>


> <IUPHAR_GRAC ID of Ligand>


> <KEGG ID of Ligand>


> <ZINC ID of Ligand>


> <Number of Protein Chains in Target (>1 implies a multichain complex)>
1

> <BindingDB Target Chain Sequence>
MAAQKNNAPKEYGADSITILEGLEAVRKRPGMYIGSTGERGLHHLIWEVVDNAVDEAMAGFATRVDVKIHADGSVEVRDDGRGIPVEMHATGMPTIDVVMTQLHAGGKFDGETYAVSGGLHGVGVSVVNALSTRLEATVLRDGYEWFQYYDRSVPGKLKQGGETKETGTTIRFWADPEIFETTDYNFETVARRLQEMAFLNKGLTIELTDERVTAEEVVDDVVKDTAEAPKTADEKAAEATGPSKVKHRVFHYPGGLVDYVKHINRTKTPIQQSIIDFDGKGPGHEVEIAMQWNAGYSESVHTFANTINTHEGGTHEEGFRAALTSVVNRYAKDKKLLKDKDPNLTGDDIREGLAAVISVKVAEPQFEGQTKTKLGNTEVKSFVQKICNEQLQHWFEANPAEAKTVVNKAVSSAQARIAARKARELVRRKSATDIGGLPGKLADCRSTDPSKSELYVVEGDSAGGSAKSGRDSMFQAILPLRGKIINVEKARIDRVLKNTEVQSIITALGTGIHDEFDISKLRYHKIVLMADADVDGQHISTLLLTLLFRFMKPLVENGHIFLAQPPLYKLKWQRSEPEFAYSDRERDGLLEAGRAAGKKINVDDGIQRYKGLGEMDAKELWETTMDPSVRVLRQVTLDDAAAADELFSILMGEDVEARRSFITRNAKDVRFLDV

> <PDB ID(s) of Target Chain>
4BAE

> <UniProt (SwissProt) Recommended Name of Target Chain>
DNA gyrase subunit B

> <UniProt (SwissProt) Entry Name of Target Chain>
GYRB_MYCSM

> <UniProt (SwissProt) Primary ID of Target Chain>
P0C559

> <UniProt (SwissProt) Secondary ID(s) of Target Chain>
P48355,Q59555

> <UniProt (SwissProt) Alternative ID(s) of Target Chain>


> <UniProt (TrEMBL) Submitted Name of Target Chain>


> <UniProt (TrEMBL) Entry Name of Target Chain>


> <UniProt (TrEMBL) Primary ID of Target Chain>


> <UniProt (TrEMBL) Secondary ID(s) of Target Chain>


> <UniProt (TrEMBL) Alternative ID(s) of Target Chain>


$$$$

  SciTegic04201612532D

 32 35  0  0  0  0            999 V2000
   -1.2964    1.4973    0.0000 N   0  0
   -2.6111    0.7486    0.0000 C   0  0
   -2.6111   -0.7486    0.0000 C   0  0
   -1.2964   -1.4973    0.0000 C   0  0
    0.0000   -0.7486    0.0000 C   0  0
    1.2964   -1.4973    0.0000 C   0  0
    2.5929   -0.7486    0.0000 C   0  0
    2.5929    0.7486    0.0000 C   0  0
    1.2964    1.4973    0.0000 C   0  0
    0.0000    0.7486    0.0000 C   0  0
   -3.9122   -1.4966    0.0000 C   0  0
   -3.9138   -2.4966    0.0000 O   0  0
   -5.2109   -0.7445    0.0000 O   0  0
   -1.2907   -2.9981    0.0000 N   0  0
   -2.5870   -3.7544    0.0000 C   0  0
   -2.5835   -5.2544    0.0000 C   0  0
   -3.8807   -6.0076    0.0000 C   0  0
   -5.1815   -5.2608    0.0000 C   0  0
   -5.1852   -3.7608    0.0000 C   0  0
   -3.8880   -3.0076    0.0000 C   0  0
   -6.4810   -6.0117    0.0000 N   0  0
   -7.7815   -5.2626    0.0000 C   0  0
   -9.0810   -6.0135    0.0000 C   0  0
  -10.3815   -5.2644    0.0000 C   0  0
  -14.2755   -7.5217    0.0000 O   0  0
  -14.2791   -6.0217    0.0000 C   0  0
  -12.9819   -5.2686    0.0000 C   0  0
  -11.6810   -6.0154    0.0000 N   0  0
  -11.6774   -7.5154    0.0000 C   0  0
  -12.9746   -8.2686    0.0000 C   0  0
   -6.5121   -1.4924    0.0000 C   0  0
   -7.5506   -0.8910    0.0000 C   0  0
  1  2  2  0
  2  3  1  0
  3  4  2  0
  4  5  1  0
  5  6  2  0
  6  7  1  0
  7  8  2  0
  8  9  1  0
  9 10  2  0
  1 10  1  0
  5 10  1  0
 11 12  2  0
 11 13  1  0
  3 11  1  0
 15 16  1  0
 16 17  2  0
 17 18  1  0
 18 19  2  0
 19 20  1  0
 15 20  2  0
 22 23  1  0
 23 24  1  0
 21 22  1  0
 25 26  1  0
 26 27  1  0
 27 28  1  0
 28 29  1  0
 29 30  1  0
 25 30  1  0
 24 28  1  0
 18 21  1  0
 14 15  1  0
  4 14  1  0
 31 32  1  0
 13 31  1  0
M  END
> <From> 
www.bindingDB.org

> <BindingDB Reactant_set_id>
50426790

> <Ligand InChI>
InChI=1S/C25H30N4O3/c1-2-32-25(30)22-18-27-23-7-4-3-6-21(23)24(22)28-20-10-8-19(9-11-20)26-12-5-13-29-14-16-31-17-15-29/h3-4,6-11,18,26H,2,5,12-17H2,1H3,(H,27,28)

> <Ligand InChI Key>
UCTPEQXARFGGLA-UHFFFAOYSA-N

> <BindingDB MonomerID>
50126837

> <BindingDB Ligand Name>
CHEMBL3628351

> <Target Name Assigned by Curator or DataSource>
DNA gyrase subunit B

> <Target Source Organism According to Curator or DataSource>


> <Ki (nM)>


> <IC50 (nM)>
 17920

> <Kd (nM)>


> <EC50 (nM)>


> <kon (M-1-s-1)>


> <koff (s-1)>


> <pH>


> <Temp C>


> <Curation/DataSource>
ChEMBL

> <Article DOI>
10.1016/j.ejmech.2015.06.032

> <PMID>
26318054

> <PubChem AID>


> <Patent Number>


> <Authors>
Medapi, B; Suryadevara, P; Renuka, J; Sridevi, JP; Yogeeswari, P; Sriram, D

> <Institution>
Birla Institute of Technology&amp;Science

> <Link to Ligand in BindingDB>
http://www.bindingdb.org/bind/chemsearch/marvin/MolStructure.jsp?monomerid=50126837

> <Link to Ligand-Target Pair in BindingDB>
http://www.bindingdb.org/jsp/dbsearch/PrimarySearch_ki.jsp?energyterm=kJ/mole&tag=pol&polymerid=50006452&target=DNA+gyrase+subunit+B&column=ki&startPg=0&Increment=50&submit=Search

> <Link to Ligand-Target Pair in BindingDB>
http://www.bindingdb.org/jsp/dbsearch/PrimarySearch_ki.jsp?energyterm=kJ/mole&tag=r21&monomerid=50126837&enzyme=DNA+gyrase+subunit+B&column=ki&startPg=0&Increment=50&submit=Search

> <Ligand HET ID in PDB>


> <PDB ID(s) for Ligand-Target Complex>


> <PubChem CID>
122193392

> <PubChem SID>
104018905

> <ChEBI ID of Ligand>


> <ChEMBL ID of Ligand>
CHEMBL38266

> <DrugBank ID of Ligand>


> <IUPHAR_GRAC ID of Ligand>


> <KEGG ID of Ligand>


> <ZINC ID of Ligand>
ZINC13494224

> <Number of Protein Chains in Target (>1 implies a multichain complex)>
1

> <BindingDB Target Chain Sequence>
MAAQKNNAPKEYGADSITILEGLEAVRKRPGMYIGSTGERGLHHLIWEVVDNAVDEAMAGFATRVDVKIHADGSVEVRDDGRGIPVEMHATGMPTIDVVMTQLHAGGKFDGETYAVSGGLHGVGVSVVNALSTRLEATVLRDGYEWFQYYDRSVPGKLKQGGETKETGTTIRFWADPEIFETTDYNFETVARRLQEMAFLNKGLTIELTDERVTAEEVVDDVVKDTAEAPKTADEKAAEATGPSKVKHRVFHYPGGLVDYVKHINRTKTPIQQSIIDFDGKGPGHEVEIAMQWNAGYSESVHTFANTINTHEGGTHEEGFRAALTSVVNRYAKDKKLLKDKDPNLTGDDIREGLAAVISVKVAEPQFEGQTKTKLGNTEVKSFVQKICNEQLQHWFEANPAEAKTVVNKAVSSAQARIAARKARELVRRKSATDIGGLPGKLADCRSTDPSKSELYVVEGDSAGGSAKSGRDSMFQAILPLRGKIINVEKARIDRVLKNTEVQSIITALGTGIHDEFDISKLRYHKIVLMADADVDGQHISTLLLTLLFRFMKPLVENGHIFLAQPPLYKLKWQRSEPEFAYSDRERDGLLEAGRAAGKKINVDDGIQRYKGLGEMDAKELWETTMDPSVRVLRQVTLDDAAAADELFSILMGEDVEARRSFITRNAKDVRFLDV

> <PDB ID(s) of Target Chain>
4BAE

> <UniProt (SwissProt) Recommended Name of Target Chain>
DNA gyrase subunit B

> <UniProt (SwissProt) Entry Name of Target Chain>
GYRB_MYCSM

> <UniProt (SwissProt) Primary ID of Target Chain>
P0C559

> <UniProt (SwissProt) Secondary ID(s) of Target Chain>
P48355,Q59555

> <UniProt (SwissProt) Alternative ID(s) of Target Chain>


> <UniProt (TrEMBL) Submitted Name of Target Chain>


> <UniProt (TrEMBL) Entry Name of Target Chain>


> <UniProt (TrEMBL) Primary ID of Target Chain>


> <UniProt (TrEMBL) Secondary ID(s) of Target Chain>


> <UniProt (TrEMBL) Alternative ID(s) of Target Chain>


$$$$

  Mrv0541 04171609262D          

 23 25  0  0  0  0            999 V2000
    0.7145   -0.4125    0.0000 C   0  0  0  0  0  0  0  0  0  0  0  0
    0.7145    0.4125    0.0000 C   0  0  0  0  0  0  0  0  0  0  0  0
    0.0000    0.8250    0.0000 C   0  0  0  0  0  0  0  0  0  0  0  0
   -0.7145    0.4125    0.0000 C   0  0  0  0  0  0  0  0  0  0  0  0
   -0.7145   -0.4125    0.0000 C   0  0  0  0  0  0  0  0  0  0  0  0
    0.0000   -0.8250    0.0000 C   0  0  0  0  0  0  0  0  0  0  0  0
   -1.4293   -0.8252    0.0000 C   0  0  0  0  0  0  0  0  0  0  0  0
   -2.1731   -0.4848    0.0000 S   0  0  0  0  0  0  0  0  0  0  0  0
   -2.7242   -1.0988    0.0000 C   0  0  0  0  0  0  0  0  0  0  0  0
   -2.3106   -1.8127    0.0000 C   0  0  0  0  0  0  0  0  0  0  0  0
   -1.5039   -1.6399    0.0000 C   0  0  0  0  0  0  0  0  0  0  0  0
   -2.6430   -2.5667    0.0000 C   0  0  0  0  0  0  0  0  0  0  0  0
   -2.2534   -3.0995    0.0000 O   0  0  0  0  0  0  0  0  0  0  0  0
   -3.2991   -2.6378    0.0000 N   0  0  0  0  0  0  0  0  0  0  0  0
   -3.5437   -1.0123    0.0000 N   0  0  0  0  0  0  0  0  0  0  0  0
   -3.8796   -0.2582    0.0000 C   0  0  0  0  0  0  0  0  0  0  0  0
   -3.4916    0.2757    0.0000 O   0  0  0  0  0  0  0  0  0  0  0  0
   -4.7005   -0.1715    0.0000 C   0  0  0  0  0  0  0  0  0  0  0  0
   -5.0373    0.5816    0.0000 N   0  0  0  0  0  0  0  0  0  0  0  0
   -5.8579    0.6666    0.0000 C   0  0  0  0  0  0  0  0  0  0  0  0
   -6.3418   -0.0017    0.0000 C   0  0  0  0  0  0  0  0  0  0  0  0
   -6.0050   -0.7548    0.0000 N   0  0  0  0  0  0  0  0  0  0  0  0
   -5.1844   -0.8398    0.0000 C   0  0  0  0  0  0  0  0  0  0  0  0
  1  2  4  0  0  0  0
  2  3  4  0  0  0  0
  3  4  4  0  0  0  0
  4  5  4  0  0  0  0
  5  6  4  0  0  0  0
  6  1  4  0  0  0  0
  7  8  4  0  0  0  0
  8  9  4  0  0  0  0
  9 10  4  0  0  0  0
 10 11  4  0  0  0  0
 11  7  4  0  0  0  0
  5  7  1  0  0  0  0
 10 12  1  0  0  0  0
 12 13  2  0  0  0  0
 12 14  1  0  0  0  0
  9 15  1  0  0  0  0
 15 16  1  0  0  0  0
 16 17  2  0  0  0  0
 18 19  4  0  0  0  0
 19 20  4  0  0  0  0
 20 21  4  0  0  0  0
 21 22  4  0  0  0  0
 22 23  4  0  0  0  0
 23 18  4  0  0  0  0
 16 18  1  0  0  0  0
M  END
> <From> 
www.bindingDB.org

> <BindingDB Reactant_set_id>
50302341

> <Ligand InChI>
InChI=1S/C16H12N4O2S/c17-14(21)11-8-13(10-4-2-1-3-5-10)23-16(11)20-15(22)12-9-18-6-7-19-12/h1-9H,(H2,17,21)(H,20,22)

> <Ligand InChI Key>
JAULUWGCOXRFSZ-UHFFFAOYSA-N

> <BindingDB MonomerID>
50066104

> <BindingDB Ligand Name>
CHEMBL3402948

> <Target Name Assigned by Curator or DataSource>
DNA gyrase subunit B

> <Target Source Organism According to Curator or DataSource>


> <Ki (nM)>


> <IC50 (nM)>
 18360

> <Kd (nM)>


> <EC50 (nM)>


> <kon (M-1-s-1)>


> <koff (s-1)>


> <pH>


> <Temp C>
25.00

> <Curation/DataSource>
ChEMBL

> <Article DOI>
10.1016/j.bmc.2015.02.032

> <PMID>
25766629

> <PubChem AID>


> <Patent Number>


> <Authors>
Saxena, S; Samala, G; Renuka, J; Sridevi, JP; Yogeeswari, P; Sriram, D

> <Institution>
Birla Institute of Technology&amp; Science-Pilani

> <Link to Ligand in BindingDB>
http://www.bindingdb.org/bind/chemsearch/marvin/MolStructure.jsp?monomerid=50066104

> <Link to Ligand-Target Pair in BindingDB>
http://www.bindingdb.org/jsp/dbsearch/PrimarySearch_ki.jsp?energyterm=kJ/mole&tag=pol&polymerid=50006452&target=DNA+gyrase+subunit+B&column=ki&startPg=0&Increment=50&submit=Search

> <Link to Ligand-Target Pair in BindingDB>
http://www.bindingdb.org/jsp/dbsearch/PrimarySearch_ki.jsp?energyterm=kJ/mole&tag=r21&monomerid=50066104&enzyme=DNA+gyrase+subunit+B&column=ki&startPg=0&Increment=50&submit=Search

> <Ligand HET ID in PDB>


> <PDB ID(s) for Ligand-Target Complex>


> <PubChem CID>
118729470

> <PubChem SID>
313071623

> <ChEBI ID of Ligand>


> <ChEMBL ID of Ligand>


> <DrugBank ID of Ligand>


> <IUPHAR_GRAC ID of Ligand>


> <KEGG ID of Ligand>


> <ZINC ID of Ligand>


> <Number of Protein Chains in Target (>1 implies a multichain complex)>
1

> <BindingDB Target Chain Sequence>
MAAQKNNAPKEYGADSITILEGLEAVRKRPGMYIGSTGERGLHHLIWEVVDNAVDEAMAGFATRVDVKIHADGSVEVRDDGRGIPVEMHATGMPTIDVVMTQLHAGGKFDGETYAVSGGLHGVGVSVVNALSTRLEATVLRDGYEWFQYYDRSVPGKLKQGGETKETGTTIRFWADPEIFETTDYNFETVARRLQEMAFLNKGLTIELTDERVTAEEVVDDVVKDTAEAPKTADEKAAEATGPSKVKHRVFHYPGGLVDYVKHINRTKTPIQQSIIDFDGKGPGHEVEIAMQWNAGYSESVHTFANTINTHEGGTHEEGFRAALTSVVNRYAKDKKLLKDKDPNLTGDDIREGLAAVISVKVAEPQFEGQTKTKLGNTEVKSFVQKICNEQLQHWFEANPAEAKTVVNKAVSSAQARIAARKARELVRRKSATDIGGLPGKLADCRSTDPSKSELYVVEGDSAGGSAKSGRDSMFQAILPLRGKIINVEKARIDRVLKNTEVQSIITALGTGIHDEFDISKLRYHKIVLMADADVDGQHISTLLLTLLFRFMKPLVENGHIFLAQPPLYKLKWQRSEPEFAYSDRERDGLLEAGRAAGKKINVDDGIQRYKGLGEMDAKELWETTMDPSVRVLRQVTLDDAAAADELFSILMGEDVEARRSFITRNAKDVRFLDV

> <PDB ID(s) of Target Chain>
4BAE

> <UniProt (SwissProt) Recommended Name of Target Chain>
DNA gyrase subunit B

> <UniProt (SwissProt) Entry Name of Target Chain>
GYRB_MYCSM

> <UniProt (SwissProt) Primary ID of Target Chain>
P0C559

> <UniProt (SwissProt) Secondary ID(s) of Target Chain>
P48355,Q59555

> <UniProt (SwissProt) Alternative ID(s) of Target Chain>


> <UniProt (TrEMBL) Submitted Name of Target Chain>


> <UniProt (TrEMBL) Entry Name of Target Chain>


> <UniProt (TrEMBL) Primary ID of Target Chain>


> <UniProt (TrEMBL) Secondary ID(s) of Target Chain>


> <UniProt (TrEMBL) Alternative ID(s) of Target Chain>


$$$$

  SciTegic09081514182D

 30 33  0  0  0  0            999 V2000
   -2.6111    0.7486    0.0000 C   0  0
   -2.6111   -0.7486    0.0000 C   0  0
   -1.2964   -1.4973    0.0000 C   0  0
   -1.2964    1.4973    0.0000 C   0  0
    0.0000    0.7486    0.0000 C   0  0
    0.0000   -0.7486    0.0000 C   0  0
    1.2964   -1.4973    0.0000 N   0  0
    2.5929   -0.7486    0.0000 C   0  0
    2.5929    0.7486    0.0000 C   0  0
    1.2964    1.4973    0.0000 C   0  0
    1.2964    2.9980    0.0000 N   0  0
   -0.0014    3.7503    0.0000 C   0  0
    0.0011    5.2503    0.0000 C   0  0
    1.3014    5.9981    0.0000 C   0  0
    2.5992    5.2460    0.0000 C   0  0
    2.5967    3.7460    0.0000 C   0  0
    1.3069    7.4990    0.0000 N   0  0
    2.6090    8.2454    0.0000 C   0  0
    3.6462    7.6419    0.0000 O   0  0
    2.6145    9.7462    0.0000 N   0  0
    3.9166   10.4926    0.0000 C   0  0
    3.9243   11.9926    0.0000 C   0  0
    5.2272   12.7360    0.0000 C   0  0
    6.5224   11.9794    0.0000 C   0  0
    6.5147   10.4794    0.0000 C   0  0
    5.2119    9.7360    0.0000 C   0  0
    3.6321   -1.3486    0.0000 C   0  0
    7.5647   12.5740    0.0000 F   0  0
   -3.9091    1.5019    0.0000 O   0  0
   -3.9072    2.7019    0.0000 C   0  0
  1  2  2  0
  2  3  1  0
  3  6  2  0
  5  4  2  0
  4  1  1  0
  5  6  1  0
  6  7  1  0
  7  8  2  0
  8  9  1  0
  9 10  2  0
 10  5  1  0
 11 12  1  0
 11 16  1  0
 12 13  1  0
 13 14  1  0
 14 15  1  0
 15 16  1  0
 10 11  1  0
 14 17  1  0
 17 18  1  0
 18 19  2  0
 18 20  1  0
 20 21  1  0
 21 22  2  0
 22 23  1  0
 23 24  2  0
 24 25  1  0
 25 26  2  0
 26 21  1  0
  8 27  1  0
 24 28  1  0
  1 29  1  0
 29 30  1  0
M  END
> <From> 
www.bindingDB.org

> <BindingDB Reactant_set_id>
50303811

> <Ligand InChI>
InChI=1S/C23H25FN4O2/c1-15-13-22(20-14-19(30-2)7-8-21(20)25-15)28-11-9-18(10-12-28)27-23(29)26-17-5-3-16(24)4-6-17/h3-8,13-14,18H,9-12H2,1-2H3,(H2,26,27,29)

> <Ligand InChI Key>
KYMRNIYNJZWQGC-UHFFFAOYSA-N

> <BindingDB MonomerID>
50066957

> <BindingDB Ligand Name>
CHEMBL3403249

> <Target Name Assigned by Curator or DataSource>
DNA gyrase subunit B

> <Target Source Organism According to Curator or DataSource>


> <Ki (nM)>


> <IC50 (nM)>
 18480

> <Kd (nM)>


> <EC50 (nM)>


> <kon (M-1-s-1)>


> <koff (s-1)>


> <pH>


> <Temp C>


> <Curation/DataSource>
ChEMBL

> <Article DOI>
10.1016/j.bmc.2015.03.004

> <PMID>
25801151

> <PubChem AID>


> <Patent Number>


> <Authors>
Medapi, B; Renuka, J; Saxena, S; Sridevi, JP; Medishetti, R; Kulkarni, P; Yogeeswari, P; Sriram, D

> <Institution>
Birla Institute of Technology&amp; Science-Pilani

> <Link to Ligand in BindingDB>
http://www.bindingdb.org/bind/chemsearch/marvin/MolStructure.jsp?monomerid=50066957

> <Link to Ligand-Target Pair in BindingDB>
http://www.bindingdb.org/jsp/dbsearch/PrimarySearch_ki.jsp?energyterm=kJ/mole&tag=pol&polymerid=50006452&target=DNA+gyrase+subunit+B&column=ki&startPg=0&Increment=50&submit=Search

> <Link to Ligand-Target Pair in BindingDB>
http://www.bindingdb.org/jsp/dbsearch/PrimarySearch_ki.jsp?energyterm=kJ/mole&tag=r21&monomerid=50066957&enzyme=DNA+gyrase+subunit+B&column=ki&startPg=0&Increment=50&submit=Search

> <Ligand HET ID in PDB>


> <PDB ID(s) for Ligand-Target Complex>


> <PubChem CID>
118729665

> <PubChem SID>
103961493

> <ChEBI ID of Ligand>


> <ChEMBL ID of Ligand>
CHEMBL127337

> <DrugBank ID of Ligand>


> <IUPHAR_GRAC ID of Ligand>


> <KEGG ID of Ligand>


> <ZINC ID of Ligand>
ZINC13781215

> <Number of Protein Chains in Target (>1 implies a multichain complex)>
1

> <BindingDB Target Chain Sequence>
MAAQKNNAPKEYGADSITILEGLEAVRKRPGMYIGSTGERGLHHLIWEVVDNAVDEAMAGFATRVDVKIHADGSVEVRDDGRGIPVEMHATGMPTIDVVMTQLHAGGKFDGETYAVSGGLHGVGVSVVNALSTRLEATVLRDGYEWFQYYDRSVPGKLKQGGETKETGTTIRFWADPEIFETTDYNFETVARRLQEMAFLNKGLTIELTDERVTAEEVVDDVVKDTAEAPKTADEKAAEATGPSKVKHRVFHYPGGLVDYVKHINRTKTPIQQSIIDFDGKGPGHEVEIAMQWNAGYSESVHTFANTINTHEGGTHEEGFRAALTSVVNRYAKDKKLLKDKDPNLTGDDIREGLAAVISVKVAEPQFEGQTKTKLGNTEVKSFVQKICNEQLQHWFEANPAEAKTVVNKAVSSAQARIAARKARELVRRKSATDIGGLPGKLADCRSTDPSKSELYVVEGDSAGGSAKSGRDSMFQAILPLRGKIINVEKARIDRVLKNTEVQSIITALGTGIHDEFDISKLRYHKIVLMADADVDGQHISTLLLTLLFRFMKPLVENGHIFLAQPPLYKLKWQRSEPEFAYSDRERDGLLEAGRAAGKKINVDDGIQRYKGLGEMDAKELWETTMDPSVRVLRQVTLDDAAAADELFSILMGEDVEARRSFITRNAKDVRFLDV

> <PDB ID(s) of Target Chain>
4BAE

> <UniProt (SwissProt) Recommended Name of Target Chain>
DNA gyrase subunit B

> <UniProt (SwissProt) Entry Name of Target Chain>
GYRB_MYCSM

> <UniProt (SwissProt) Primary ID of Target Chain>
P0C559

> <UniProt (SwissProt) Secondary ID(s) of Target Chain>
P48355,Q59555

> <UniProt (SwissProt) Alternative ID(s) of Target Chain>


> <UniProt (TrEMBL) Submitted Name of Target Chain>


> <UniProt (TrEMBL) Entry Name of Target Chain>


> <UniProt (TrEMBL) Primary ID of Target Chain>


> <UniProt (TrEMBL) Secondary ID(s) of Target Chain>


> <UniProt (TrEMBL) Alternative ID(s) of Target Chain>


$$$$

  SciTegic04201612532D

 32 35  0  0  0  0            999 V2000
   -1.2964    1.4973    0.0000 N   0  0
   -2.6111    0.7486    0.0000 C   0  0
   -2.6111   -0.7486    0.0000 C   0  0
   -1.2964   -1.4973    0.0000 C   0  0
    0.0000   -0.7486    0.0000 C   0  0
    1.2964   -1.4973    0.0000 C   0  0
    2.5929   -0.7486    0.0000 C   0  0
    2.5929    0.7486    0.0000 C   0  0
    1.2964    1.4973    0.0000 C   0  0
    0.0000    0.7486    0.0000 C   0  0
   -3.9122   -1.4966    0.0000 C   0  0
   -3.9138   -2.4966    0.0000 O   0  0
   -5.2109   -0.7445    0.0000 N   0  0
   -1.2907   -2.9981    0.0000 N   0  0
   -2.5870   -3.7544    0.0000 C   0  0
   -2.5835   -5.2544    0.0000 C   0  0
   -3.8807   -6.0076    0.0000 C   0  0
   -5.1815   -5.2608    0.0000 C   0  0
   -5.1852   -3.7608    0.0000 C   0  0
   -3.8880   -3.0076    0.0000 C   0  0
   -6.4810   -6.0117    0.0000 N   0  0
   -7.7815   -5.2626    0.0000 C   0  0
   -9.0810   -6.0135    0.0000 C   0  0
  -10.3815   -5.2644    0.0000 C   0  0
  -14.2755   -7.5217    0.0000 O   0  0
  -14.2791   -6.0217    0.0000 C   0  0
  -12.9819   -5.2686    0.0000 C   0  0
  -11.6810   -6.0154    0.0000 N   0  0
  -11.6774   -7.5154    0.0000 C   0  0
  -12.9746   -8.2686    0.0000 C   0  0
   -6.2513   -1.3425    0.0000 N   0  0
    3.6321   -1.3486    0.0000 F   0  0
  1  2  2  0
  2  3  1  0
  3  4  2  0
  4  5  1  0
  5  6  2  0
  6  7  1  0
  7  8  2  0
  8  9  1  0
  9 10  2  0
  1 10  1  0
  5 10  1  0
 11 12  2  0
 11 13  1  0
  3 11  1  0
 15 16  1  0
 16 17  2  0
 17 18  1  0
 18 19  2  0
 19 20  1  0
 15 20  2  0
 22 23  1  0
 23 24  1  0
 21 22  1  0
 25 26  1  0
 26 27  1  0
 27 28  1  0
 28 29  1  0
 29 30  1  0
 25 30  1  0
 24 28  1  0
 18 21  1  0
 14 15  1  0
  4 14  1  0
 13 31  1  0
  7 32  1  0
M  END
> <From> 
www.bindingDB.org

> <BindingDB Reactant_set_id>
50426772

> <Ligand InChI>
InChI=1S/C23H27FN6O2/c24-16-2-7-21-19(14-16)22(20(15-27-21)23(31)29-25)28-18-5-3-17(4-6-18)26-8-1-9-30-10-12-32-13-11-30/h2-7,14-15,26H,1,8-13,25H2,(H,27,28)(H,29,31)

> <Ligand InChI Key>
QDROYHQONXRDAX-UHFFFAOYSA-N

> <BindingDB MonomerID>
50126769

> <BindingDB Ligand Name>
CHEMBL3628446

> <Target Name Assigned by Curator or DataSource>
DNA gyrase subunit B

> <Target Source Organism According to Curator or DataSource>


> <Ki (nM)>


> <IC50 (nM)>
 18670

> <Kd (nM)>


> <EC50 (nM)>


> <kon (M-1-s-1)>


> <koff (s-1)>


> <pH>


> <Temp C>


> <Curation/DataSource>
ChEMBL

> <Article DOI>
10.1016/j.ejmech.2015.06.032

> <PMID>
26318054

> <PubChem AID>


> <Patent Number>


> <Authors>
Medapi, B; Suryadevara, P; Renuka, J; Sridevi, JP; Yogeeswari, P; Sriram, D

> <Institution>
Birla Institute of Technology&amp;Science

> <Link to Ligand in BindingDB>
http://www.bindingdb.org/bind/chemsearch/marvin/MolStructure.jsp?monomerid=50126769

> <Link to Ligand-Target Pair in BindingDB>
http://www.bindingdb.org/jsp/dbsearch/PrimarySearch_ki.jsp?energyterm=kJ/mole&tag=pol&polymerid=50006452&target=DNA+gyrase+subunit+B&column=ki&startPg=0&Increment=50&submit=Search

> <Link to Ligand-Target Pair in BindingDB>
http://www.bindingdb.org/jsp/dbsearch/PrimarySearch_ki.jsp?energyterm=kJ/mole&tag=r21&monomerid=50126769&enzyme=DNA+gyrase+subunit+B&column=ki&startPg=0&Increment=50&submit=Search

> <Ligand HET ID in PDB>


> <PDB ID(s) for Ligand-Target Complex>


> <PubChem CID>
122193459

> <PubChem SID>
104018843

> <ChEBI ID of Ligand>


> <ChEMBL ID of Ligand>
CHEMBL10147

> <DrugBank ID of Ligand>


> <IUPHAR_GRAC ID of Ligand>


> <KEGG ID of Ligand>


> <ZINC ID of Ligand>
ZINC13319948

> <Number of Protein Chains in Target (>1 implies a multichain complex)>
1

> <BindingDB Target Chain Sequence>
MAAQKNNAPKEYGADSITILEGLEAVRKRPGMYIGSTGERGLHHLIWEVVDNAVDEAMAGFATRVDVKIHADGSVEVRDDGRGIPVEMHATGMPTIDVVMTQLHAGGKFDGETYAVSGGLHGVGVSVVNALSTRLEATVLRDGYEWFQYYDRSVPGKLKQGGETKETGTTIRFWADPEIFETTDYNFETVARRLQEMAFLNKGLTIELTDERVTAEEVVDDVVKDTAEAPKTADEKAAEATGPSKVKHRVFHYPGGLVDYVKHINRTKTPIQQSIIDFDGKGPGHEVEIAMQWNAGYSESVHTFANTINTHEGGTHEEGFRAALTSVVNRYAKDKKLLKDKDPNLTGDDIREGLAAVISVKVAEPQFEGQTKTKLGNTEVKSFVQKICNEQLQHWFEANPAEAKTVVNKAVSSAQARIAARKARELVRRKSATDIGGLPGKLADCRSTDPSKSELYVVEGDSAGGSAKSGRDSMFQAILPLRGKIINVEKARIDRVLKNTEVQSIITALGTGIHDEFDISKLRYHKIVLMADADVDGQHISTLLLTLLFRFMKPLVENGHIFLAQPPLYKLKWQRSEPEFAYSDRERDGLLEAGRAAGKKINVDDGIQRYKGLGEMDAKELWETTMDPSVRVLRQVTLDDAAAADELFSILMGEDVEARRSFITRNAKDVRFLDV

> <PDB ID(s) of Target Chain>
4BAE

> <UniProt (SwissProt) Recommended Name of Target Chain>
DNA gyrase subunit B

> <UniProt (SwissProt) Entry Name of Target Chain>
GYRB_MYCSM

> <UniProt (SwissProt) Primary ID of Target Chain>
P0C559

> <UniProt (SwissProt) Secondary ID(s) of Target Chain>
P48355,Q59555

> <UniProt (SwissProt) Alternative ID(s) of Target Chain>


> <UniProt (TrEMBL) Submitted Name of Target Chain>


> <UniProt (TrEMBL) Entry Name of Target Chain>


> <UniProt (TrEMBL) Primary ID of Target Chain>


> <UniProt (TrEMBL) Secondary ID(s) of Target Chain>


> <UniProt (TrEMBL) Alternative ID(s) of Target Chain>


$$$$

  SciTegic12231722352D

 29 32  0  0  0  0            999 V2000
    7.6080  -15.1876    0.0000 N   0  0
    6.8946  -15.5855    0.0000 C   0  0
    6.8817  -16.4025    0.0000 C   0  0
    7.5863  -16.8217    0.0000 N   0  0
    8.2997  -16.4239    0.0000 C   0  0
    8.3085  -15.6068    0.0000 C   0  0
    7.6168  -14.3705    0.0000 C   0  0
    8.3302  -13.9726    0.0000 N   0  0
    6.9164  -13.9513    0.0000 O   0  0
    8.3432  -13.1556    0.0000 C   0  0
    9.0566  -12.7536    0.0000 C   0  0
    9.0695  -11.9365    0.0000 C   0  0
    8.3649  -11.5214    0.0000 C   0  0
    7.6515  -11.9193    0.0000 C   0  0
    7.6427  -12.7364    0.0000 C   0  0
    7.5516  -19.2730    0.0000 N   0  0
    8.2650  -18.8751    0.0000 C   0  0
    8.2738  -18.0580    0.0000 C   0  0
    7.5733  -17.6388    0.0000 C   0  0
    6.8599  -18.0367    0.0000 C   0  0
    6.1595  -17.6175    0.0000 C   0  0
    5.4461  -18.0154    0.0000 C   0  0
    5.4331  -18.8366    0.0000 C   0  0
    6.1336  -19.2517    0.0000 C   0  0
    6.8511  -18.8538    0.0000 C   0  0
    4.7197  -19.2345    0.0000 Cl  0  0
    8.3746  -10.7043    0.0000 C   0  0
    9.0870  -10.3041    0.0000 O   0  0
    7.6717  -10.2874    0.0000 C   0  0
  1  2  1  0
  2  3  1  0
  3  4  1  0
  4  5  1  0
  5  6  1  0
  1  6  1  0
  7  8  1  0
  7  9  2  0
  1  7  1  0
 10 11  1  0
 11 12  2  0
 12 13  1  0
 13 14  2  0
 14 15  1  0
 10 15  2  0
  8 10  1  0
 16 17  2  0
 17 18  1  0
 18 19  2  0
 19 20  1  0
 20 21  2  0
 21 22  1  0
 22 23  2  0
 23 24  1  0
 24 25  2  0
 16 25  1  0
 20 25  1  0
 23 26  1  0
  4 19  1  0
 13 27  1  0
 27 28  2  0
 27 29  1  0
M  END
> <From> 
www.bindingDB.org

> <BindingDB Reactant_set_id>
50528052

> <Ligand InChI>
InChI=1S/C22H21ClN4O2/c1-15(28)16-2-5-18(6-3-16)25-22(29)27-12-10-26(11-13-27)21-8-9-24-20-14-17(23)4-7-19(20)21/h2-9,14H,10-13H2,1H3,(H,25,29)

> <Ligand InChI Key>
KWGLOFNTIRKJMQ-UHFFFAOYSA-N

> <BindingDB MonomerID>
50202007

> <BindingDB Ligand Name>
CHEMBL3969397

> <Target Name Assigned by Curator or DataSource>
DNA gyrase subunit B

> <Target Source Organism According to Curator or DataSource>


> <Ki (nM)>


> <IC50 (nM)>
 18800

> <Kd (nM)>


> <EC50 (nM)>


> <kon (M-1-s-1)>


> <koff (s-1)>


> <pH>


> <Temp C>


> <Curation/DataSource>
ChEMBL

> <Article DOI>
10.1016/j.ejmech.2016.06.042

> <PMID>
27371925

> <PubChem AID>


> <Patent Number>


> <Authors>
Jeankumar, VU; Reshma, RS; Vats, R; Janupally, R; Saxena, S; Yogeeswari, P; Sriram, D

> <Institution>
Birla Institute of Technology&amp; Science-Pilani

> <Link to Ligand in BindingDB>
http://www.bindingdb.org/bind/chemsearch/marvin/MolStructure.jsp?monomerid=50202007

> <Link to Ligand-Target Pair in BindingDB>
http://www.bindingdb.org/jsp/dbsearch/PrimarySearch_ki.jsp?energyterm=kJ/mole&tag=pol&polymerid=50006452&target=DNA+gyrase+subunit+B&column=ki&startPg=0&Increment=50&submit=Search

> <Link to Ligand-Target Pair in BindingDB>
http://www.bindingdb.org/jsp/dbsearch/PrimarySearch_ki.jsp?energyterm=kJ/mole&tag=r21&monomerid=50202007&enzyme=DNA+gyrase+subunit+B&column=ki&startPg=0&Increment=50&submit=Search

> <Ligand HET ID in PDB>


> <PDB ID(s) for Ligand-Target Complex>


> <PubChem CID>
21101688

> <PubChem SID>
375979566

> <ChEBI ID of Ligand>


> <ChEMBL ID of Ligand>


> <DrugBank ID of Ligand>


> <IUPHAR_GRAC ID of Ligand>


> <KEGG ID of Ligand>


> <ZINC ID of Ligand>


> <Number of Protein Chains in Target (>1 implies a multichain complex)>
1

> <BindingDB Target Chain Sequence>
MAAQKNNAPKEYGADSITILEGLEAVRKRPGMYIGSTGERGLHHLIWEVVDNAVDEAMAGFATRVDVKIHADGSVEVRDDGRGIPVEMHATGMPTIDVVMTQLHAGGKFDGETYAVSGGLHGVGVSVVNALSTRLEATVLRDGYEWFQYYDRSVPGKLKQGGETKETGTTIRFWADPEIFETTDYNFETVARRLQEMAFLNKGLTIELTDERVTAEEVVDDVVKDTAEAPKTADEKAAEATGPSKVKHRVFHYPGGLVDYVKHINRTKTPIQQSIIDFDGKGPGHEVEIAMQWNAGYSESVHTFANTINTHEGGTHEEGFRAALTSVVNRYAKDKKLLKDKDPNLTGDDIREGLAAVISVKVAEPQFEGQTKTKLGNTEVKSFVQKICNEQLQHWFEANPAEAKTVVNKAVSSAQARIAARKARELVRRKSATDIGGLPGKLADCRSTDPSKSELYVVEGDSAGGSAKSGRDSMFQAILPLRGKIINVEKARIDRVLKNTEVQSIITALGTGIHDEFDISKLRYHKIVLMADADVDGQHISTLLLTLLFRFMKPLVENGHIFLAQPPLYKLKWQRSEPEFAYSDRERDGLLEAGRAAGKKINVDDGIQRYKGLGEMDAKELWETTMDPSVRVLRQVTLDDAAAADELFSILMGEDVEARRSFITRNAKDVRFLDV

> <PDB ID(s) of Target Chain>
4BAE

> <UniProt (SwissProt) Recommended Name of Target Chain>
DNA gyrase subunit B

> <UniProt (SwissProt) Entry Name of Target Chain>
GYRB_MYCSM

> <UniProt (SwissProt) Primary ID of Target Chain>
P0C559

> <UniProt (SwissProt) Secondary ID(s) of Target Chain>
P48355,Q59555

> <UniProt (SwissProt) Alternative ID(s) of Target Chain>


> <UniProt (TrEMBL) Submitted Name of Target Chain>


> <UniProt (TrEMBL) Entry Name of Target Chain>


> <UniProt (TrEMBL) Primary ID of Target Chain>


> <UniProt (TrEMBL) Secondary ID(s) of Target Chain>


> <UniProt (TrEMBL) Alternative ID(s) of Target Chain>


$$$$

  SciTegic09081514182D

 18 19  0  0  0  0            999 V2000
    1.2990   -0.7500    0.0000 C   0  0
    1.2990    0.7500    0.0000 C   0  0
    0.0000    1.5000    0.0000 C   0  0
   -1.2990    0.7500    0.0000 C   0  0
   -1.2990   -0.7500    0.0000 C   0  0
    0.0000   -1.5000    0.0000 C   0  0
   -2.5987   -1.5004    0.0000 C   0  0
   -3.9511   -0.8815    0.0000 S   0  0
   -4.9530   -1.9978    0.0000 C   0  0
   -4.2010   -3.2957    0.0000 C   0  0
   -2.7343   -2.9815    0.0000 C   0  0
   -4.8053   -4.6666    0.0000 C   0  0
   -4.0971   -5.6353    0.0000 O   0  0
   -5.9983   -4.7960    0.0000 N   0  0
   -6.4430   -1.8405    0.0000 N   0  0
   -7.0537   -0.4695    0.0000 C   0  0
   -8.2470   -0.3435    0.0000 O   0  0
   -6.3482    0.5012    0.0000 C   0  0
  1  2  2  0
  2  3  1  0
  3  4  2  0
  4  5  1  0
  5  6  2  0
  6  1  1  0
  7  8  1  0
  8  9  1  0
  9 10  2  0
 10 11  1  0
 11  7  2  0
  5  7  1  0
 10 12  1  0
 12 13  2  0
 12 14  1  0
  9 15  1  0
 15 16  1  0
 16 17  2  0
 16 18  1  0
M  END
> <From> 
www.bindingDB.org

> <BindingDB Reactant_set_id>
50302347

> <Ligand InChI>
InChI=1S/C13H12N2O2S/c1-8(16)15-13-10(12(14)17)7-11(18-13)9-5-3-2-4-6-9/h2-7H,1H3,(H2,14,17)(H,15,16)

> <Ligand InChI Key>
DDKWMIMDNNXMCH-UHFFFAOYSA-N

> <BindingDB MonomerID>
50066108

> <BindingDB Ligand Name>
CHEMBL3402952

> <Target Name Assigned by Curator or DataSource>
DNA gyrase subunit B

> <Target Source Organism According to Curator or DataSource>


> <Ki (nM)>


> <IC50 (nM)>
 19120

> <Kd (nM)>


> <EC50 (nM)>


> <kon (M-1-s-1)>


> <koff (s-1)>


> <pH>


> <Temp C>
25.00

> <Curation/DataSource>
ChEMBL

> <Article DOI>
10.1016/j.bmc.2015.02.032

> <PMID>
25766629

> <PubChem AID>


> <Patent Number>


> <Authors>
Saxena, S; Samala, G; Renuka, J; Sridevi, JP; Yogeeswari, P; Sriram, D

> <Institution>
Birla Institute of Technology&amp; Science-Pilani

> <Link to Ligand in BindingDB>
http://www.bindingdb.org/bind/chemsearch/marvin/MolStructure.jsp?monomerid=50066108

> <Link to Ligand-Target Pair in BindingDB>
http://www.bindingdb.org/jsp/dbsearch/PrimarySearch_ki.jsp?energyterm=kJ/mole&tag=pol&polymerid=50006452&target=DNA+gyrase+subunit+B&column=ki&startPg=0&Increment=50&submit=Search

> <Link to Ligand-Target Pair in BindingDB>
http://www.bindingdb.org/jsp/dbsearch/PrimarySearch_ki.jsp?energyterm=kJ/mole&tag=r21&monomerid=50066108&enzyme=DNA+gyrase+subunit+B&column=ki&startPg=0&Increment=50&submit=Search

> <Ligand HET ID in PDB>


> <PDB ID(s) for Ligand-Target Complex>


> <PubChem CID>
9921409

> <PubChem SID>
103960790

> <ChEBI ID of Ligand>


> <ChEMBL ID of Ligand>
CHEMBL430499

> <DrugBank ID of Ligand>


> <IUPHAR_GRAC ID of Ligand>


> <KEGG ID of Ligand>


> <ZINC ID of Ligand>
ZINC26843003

> <Number of Protein Chains in Target (>1 implies a multichain complex)>
1

> <BindingDB Target Chain Sequence>
MAAQKNNAPKEYGADSITILEGLEAVRKRPGMYIGSTGERGLHHLIWEVVDNAVDEAMAGFATRVDVKIHADGSVEVRDDGRGIPVEMHATGMPTIDVVMTQLHAGGKFDGETYAVSGGLHGVGVSVVNALSTRLEATVLRDGYEWFQYYDRSVPGKLKQGGETKETGTTIRFWADPEIFETTDYNFETVARRLQEMAFLNKGLTIELTDERVTAEEVVDDVVKDTAEAPKTADEKAAEATGPSKVKHRVFHYPGGLVDYVKHINRTKTPIQQSIIDFDGKGPGHEVEIAMQWNAGYSESVHTFANTINTHEGGTHEEGFRAALTSVVNRYAKDKKLLKDKDPNLTGDDIREGLAAVISVKVAEPQFEGQTKTKLGNTEVKSFVQKICNEQLQHWFEANPAEAKTVVNKAVSSAQARIAARKARELVRRKSATDIGGLPGKLADCRSTDPSKSELYVVEGDSAGGSAKSGRDSMFQAILPLRGKIINVEKARIDRVLKNTEVQSIITALGTGIHDEFDISKLRYHKIVLMADADVDGQHISTLLLTLLFRFMKPLVENGHIFLAQPPLYKLKWQRSEPEFAYSDRERDGLLEAGRAAGKKINVDDGIQRYKGLGEMDAKELWETTMDPSVRVLRQVTLDDAAAADELFSILMGEDVEARRSFITRNAKDVRFLDV

> <PDB ID(s) of Target Chain>
4BAE

> <UniProt (SwissProt) Recommended Name of Target Chain>
DNA gyrase subunit B

> <UniProt (SwissProt) Entry Name of Target Chain>
GYRB_MYCSM

> <UniProt (SwissProt) Primary ID of Target Chain>
P0C559

> <UniProt (SwissProt) Secondary ID(s) of Target Chain>
P48355,Q59555

> <UniProt (SwissProt) Alternative ID(s) of Target Chain>


> <UniProt (TrEMBL) Submitted Name of Target Chain>


> <UniProt (TrEMBL) Entry Name of Target Chain>


> <UniProt (TrEMBL) Primary ID of Target Chain>


> <UniProt (TrEMBL) Secondary ID(s) of Target Chain>


> <UniProt (TrEMBL) Alternative ID(s) of Target Chain>


$$$$

  Mrv0541 04171609262D          

 29 32  0  0  0  0            999 V2000
   -1.4361    0.4117    0.0000 C   0  0  0  0  0  0  0  0  0  0  0  0
   -1.4361   -0.4117    0.0000 C   0  0  0  0  0  0  0  0  0  0  0  0
   -0.7130   -0.8235    0.0000 C   0  0  0  0  0  0  0  0  0  0  0  0
   -0.7130    0.8235    0.0000 C   0  0  0  0  0  0  0  0  0  0  0  0
    0.0000    0.4117    0.0000 C   0  0  0  0  0  0  0  0  0  0  0  0
    0.0000   -0.4117    0.0000 C   0  0  0  0  0  0  0  0  0  0  0  0
    0.7130   -0.8235    0.0000 N   0  0  0  0  0  0  0  0  0  0  0  0
    1.4261   -0.4117    0.0000 C   0  0  0  0  0  0  0  0  0  0  0  0
    1.4261    0.4117    0.0000 C   0  0  0  0  0  0  0  0  0  0  0  0
    0.7130    0.8235    0.0000 C   0  0  0  0  0  0  0  0  0  0  0  0
    0.7130    1.6489    0.0000 N   0  0  0  0  0  0  0  0  0  0  0  0
   -0.0008    2.0627    0.0000 C   0  0  0  0  0  0  0  0  0  0  0  0
    0.0006    2.8877    0.0000 C   0  0  0  0  0  0  0  0  0  0  0  0
    0.7158    3.2990    0.0000 C   0  0  0  0  0  0  0  0  0  0  0  0
    1.4296    2.8853    0.0000 C   0  0  0  0  0  0  0  0  0  0  0  0
    1.4282    2.0603    0.0000 C   0  0  0  0  0  0  0  0  0  0  0  0
    0.7188    4.1245    0.0000 N   0  0  0  0  0  0  0  0  0  0  0  0
    1.4350    4.5350    0.0000 C   0  0  0  0  0  0  0  0  0  0  0  0
    2.0054    4.2031    0.0000 S   0  0  0  0  0  0  0  0  0  0  0  0
    1.4380    5.3604    0.0000 N   0  0  0  0  0  0  0  0  0  0  0  0
    2.1541    5.7709    0.0000 C   0  0  0  0  0  0  0  0  0  0  0  0
    2.1584    6.5960    0.0000 C   0  0  0  0  0  0  0  0  0  0  0  0
    2.8750    7.0048    0.0000 C   0  0  0  0  0  0  0  0  0  0  0  0
    3.5873    6.5887    0.0000 C   0  0  0  0  0  0  0  0  0  0  0  0
    3.5831    5.7637    0.0000 C   0  0  0  0  0  0  0  0  0  0  0  0
    2.8666    5.3548    0.0000 C   0  0  0  0  0  0  0  0  0  0  0  0
    1.9977   -0.7417    0.0000 C   0  0  0  0  0  0  0  0  0  0  0  0
    4.3051    6.9962    0.0000 O   0  0  0  0  0  0  0  0  0  0  0  0
    4.8746    6.6626    0.0000 C   0  0  0  0  0  0  0  0  0  0  0  0
  1  2  4  0  0  0  0
  2  3  4  0  0  0  0
  3  6  4  0  0  0  0
  5  4  4  0  0  0  0
  4  1  4  0  0  0  0
  5  6  4  0  0  0  0
  6  7  4  0  0  0  0
  7  8  4  0  0  0  0
  8  9  4  0  0  0  0
  9 10  4  0  0  0  0
 10  5  4  0  0  0  0
 11 12  1  0  0  0  0
 11 16  1  0  0  0  0
 12 13  1  0  0  0  0
 13 14  1  0  0  0  0
 14 15  1  0  0  0  0
 15 16  1  0  0  0  0
 10 11  1  0  0  0  0
 14 17  1  0  0  0  0
 17 18  1  0  0  0  0
 18 19  2  0  0  0  0
 18 20  1  0  0  0  0
 20 21  1  0  0  0  0
 21 22  4  0  0  0  0
 22 23  4  0  0  0  0
 23 24  4  0  0  0  0
 24 25  4  0  0  0  0
 25 26  4  0  0  0  0
 26 21  4  0  0  0  0
  8 27  1  0  0  0  0
 24 28  1  0  0  0  0
 28 29  1  0  0  0  0
M  END
> <From> 
www.bindingDB.org

> <BindingDB Reactant_set_id>
50303838

> <Ligand InChI>
InChI=1S/C23H26N4OS/c1-16-15-22(20-5-3-4-6-21(20)24-16)27-13-11-18(12-14-27)26-23(29)25-17-7-9-19(28-2)10-8-17/h3-10,15,18H,11-14H2,1-2H3,(H2,25,26,29)

> <Ligand InChI Key>
ZONNTHXBMGYHMU-UHFFFAOYSA-N

> <BindingDB MonomerID>
50067150

> <BindingDB Ligand Name>
CHEMBL3403271

> <Target Name Assigned by Curator or DataSource>
DNA gyrase subunit B

> <Target Source Organism According to Curator or DataSource>


> <Ki (nM)>


> <IC50 (nM)>
 19420

> <Kd (nM)>


> <EC50 (nM)>


> <kon (M-1-s-1)>


> <koff (s-1)>


> <pH>


> <Temp C>


> <Curation/DataSource>
ChEMBL

> <Article DOI>
10.1016/j.bmc.2015.03.004

> <PMID>
25801151

> <PubChem AID>


> <Patent Number>


> <Authors>
Medapi, B; Renuka, J; Saxena, S; Sridevi, JP; Medishetti, R; Kulkarni, P; Yogeeswari, P; Sriram, D

> <Institution>
Birla Institute of Technology&amp; Science-Pilani

> <Link to Ligand in BindingDB>
http://www.bindingdb.org/bind/chemsearch/marvin/MolStructure.jsp?monomerid=50067150

> <Link to Ligand-Target Pair in BindingDB>
http://www.bindingdb.org/jsp/dbsearch/PrimarySearch_ki.jsp?energyterm=kJ/mole&tag=pol&polymerid=50006452&target=DNA+gyrase+subunit+B&column=ki&startPg=0&Increment=50&submit=Search

> <Link to Ligand-Target Pair in BindingDB>
http://www.bindingdb.org/jsp/dbsearch/PrimarySearch_ki.jsp?energyterm=kJ/mole&tag=r21&monomerid=50067150&enzyme=DNA+gyrase+subunit+B&column=ki&startPg=0&Increment=50&submit=Search

> <Ligand HET ID in PDB>


> <PDB ID(s) for Ligand-Target Complex>


> <PubChem CID>
118729687

> <PubChem SID>
313071781

> <ChEBI ID of Ligand>


> <ChEMBL ID of Ligand>


> <DrugBank ID of Ligand>


> <IUPHAR_GRAC ID of Ligand>


> <KEGG ID of Ligand>


> <ZINC ID of Ligand>


> <Number of Protein Chains in Target (>1 implies a multichain complex)>
1

> <BindingDB Target Chain Sequence>
MAAQKNNAPKEYGADSITILEGLEAVRKRPGMYIGSTGERGLHHLIWEVVDNAVDEAMAGFATRVDVKIHADGSVEVRDDGRGIPVEMHATGMPTIDVVMTQLHAGGKFDGETYAVSGGLHGVGVSVVNALSTRLEATVLRDGYEWFQYYDRSVPGKLKQGGETKETGTTIRFWADPEIFETTDYNFETVARRLQEMAFLNKGLTIELTDERVTAEEVVDDVVKDTAEAPKTADEKAAEATGPSKVKHRVFHYPGGLVDYVKHINRTKTPIQQSIIDFDGKGPGHEVEIAMQWNAGYSESVHTFANTINTHEGGTHEEGFRAALTSVVNRYAKDKKLLKDKDPNLTGDDIREGLAAVISVKVAEPQFEGQTKTKLGNTEVKSFVQKICNEQLQHWFEANPAEAKTVVNKAVSSAQARIAARKARELVRRKSATDIGGLPGKLADCRSTDPSKSELYVVEGDSAGGSAKSGRDSMFQAILPLRGKIINVEKARIDRVLKNTEVQSIITALGTGIHDEFDISKLRYHKIVLMADADVDGQHISTLLLTLLFRFMKPLVENGHIFLAQPPLYKLKWQRSEPEFAYSDRERDGLLEAGRAAGKKINVDDGIQRYKGLGEMDAKELWETTMDPSVRVLRQVTLDDAAAADELFSILMGEDVEARRSFITRNAKDVRFLDV

> <PDB ID(s) of Target Chain>
4BAE

> <UniProt (SwissProt) Recommended Name of Target Chain>
DNA gyrase subunit B

> <UniProt (SwissProt) Entry Name of Target Chain>
GYRB_MYCSM

> <UniProt (SwissProt) Primary ID of Target Chain>
P0C559

> <UniProt (SwissProt) Secondary ID(s) of Target Chain>
P48355,Q59555

> <UniProt (SwissProt) Alternative ID(s) of Target Chain>


> <UniProt (TrEMBL) Submitted Name of Target Chain>


> <UniProt (TrEMBL) Entry Name of Target Chain>


> <UniProt (TrEMBL) Primary ID of Target Chain>


> <UniProt (TrEMBL) Secondary ID(s) of Target Chain>


> <UniProt (TrEMBL) Alternative ID(s) of Target Chain>


$$$$

  SciTegic09081514182D

 32 35  0  0  0  0            999 V2000
   -2.6111    0.7486    0.0000 C   0  0
   -2.6111   -0.7486    0.0000 C   0  0
   -1.2964   -1.4973    0.0000 C   0  0
   -1.2964    1.4973    0.0000 C   0  0
    0.0000    0.7486    0.0000 C   0  0
    0.0000   -0.7486    0.0000 C   0  0
    1.2964   -1.4973    0.0000 N   0  0
    2.5929   -0.7486    0.0000 C   0  0
    2.5929    0.7486    0.0000 C   0  0
    1.2964    1.4973    0.0000 C   0  0
    1.2964    2.9980    0.0000 N   0  0
   -0.0014    3.7503    0.0000 C   0  0
    0.0011    5.2503    0.0000 C   0  0
    1.3014    5.9981    0.0000 C   0  0
    2.5992    5.2460    0.0000 C   0  0
    2.5967    3.7460    0.0000 C   0  0
    1.3069    7.4990    0.0000 N   0  0
    2.6090    8.2454    0.0000 C   0  0
    3.6462    7.6419    0.0000 O   0  0
    2.6145    9.7462    0.0000 N   0  0
    3.9166   10.4926    0.0000 C   0  0
    3.9243   11.9926    0.0000 C   0  0
    5.2272   12.7360    0.0000 C   0  0
    6.5224   11.9794    0.0000 C   0  0
    6.5147   10.4794    0.0000 C   0  0
    5.2119    9.7360    0.0000 C   0  0
    3.6321   -1.3486    0.0000 C   0  0
   -3.9106    1.4992    0.0000 C   0  0
   -4.9503    0.9000    0.0000 F   0  0
   -3.9101    2.6992    0.0000 F   0  0
   -4.9495    2.0999    0.0000 F   0  0
    7.5647   12.5740    0.0000 F   0  0
  1  2  2  0
  2  3  1  0
  3  6  2  0
  5  4  2  0
  4  1  1  0
  5  6  1  0
  6  7  1  0
  7  8  2  0
  8  9  1  0
  9 10  2  0
 10  5  1  0
 11 12  1  0
 11 16  1  0
 12 13  1  0
 13 14  1  0
 14 15  1  0
 15 16  1  0
 10 11  1  0
 14 17  1  0
 17 18  1  0
 18 19  2  0
 18 20  1  0
 20 21  1  0
 21 22  2  0
 22 23  1  0
 23 24  2  0
 24 25  1  0
 25 26  2  0
 26 21  1  0
  8 27  1  0
  1 28  1  0
 28 29  1  0
 28 30  1  0
 28 31  1  0
 24 32  1  0
M  END
> <From> 
www.bindingDB.org

> <BindingDB Reactant_set_id>
50303848

> <Ligand InChI>
InChI=1S/C23H22F4N4O/c1-14-12-21(19-13-15(23(25,26)27)2-7-20(19)28-14)31-10-8-18(9-11-31)30-22(32)29-17-5-3-16(24)4-6-17/h2-7,12-13,18H,8-11H2,1H3,(H2,29,30,32)

> <Ligand InChI Key>
PVUSNLLFKAHTAF-UHFFFAOYSA-N

> <BindingDB MonomerID>
50067127

> <BindingDB Ligand Name>
CHEMBL3403261

> <Target Name Assigned by Curator or DataSource>
DNA gyrase subunit B

> <Target Source Organism According to Curator or DataSource>


> <Ki (nM)>


> <IC50 (nM)>
 19770

> <Kd (nM)>


> <EC50 (nM)>


> <kon (M-1-s-1)>


> <koff (s-1)>


> <pH>


> <Temp C>


> <Curation/DataSource>
ChEMBL

> <Article DOI>
10.1016/j.bmc.2015.03.004

> <PMID>
25801151

> <PubChem AID>


> <Patent Number>


> <Authors>
Medapi, B; Renuka, J; Saxena, S; Sridevi, JP; Medishetti, R; Kulkarni, P; Yogeeswari, P; Sriram, D

> <Institution>
Birla Institute of Technology&amp; Science-Pilani

> <Link to Ligand in BindingDB>
http://www.bindingdb.org/bind/chemsearch/marvin/MolStructure.jsp?monomerid=50067127

> <Link to Ligand-Target Pair in BindingDB>
http://www.bindingdb.org/jsp/dbsearch/PrimarySearch_ki.jsp?energyterm=kJ/mole&tag=pol&polymerid=50006452&target=DNA+gyrase+subunit+B&column=ki&startPg=0&Increment=50&submit=Search

> <Link to Ligand-Target Pair in BindingDB>
http://www.bindingdb.org/jsp/dbsearch/PrimarySearch_ki.jsp?energyterm=kJ/mole&tag=r21&monomerid=50067127&enzyme=DNA+gyrase+subunit+B&column=ki&startPg=0&Increment=50&submit=Search

> <Ligand HET ID in PDB>


> <PDB ID(s) for Ligand-Target Complex>


> <PubChem CID>
118729677

> <PubChem SID>
103961659

> <ChEBI ID of Ligand>


> <ChEMBL ID of Ligand>
CHEMBL339828

> <DrugBank ID of Ligand>


> <IUPHAR_GRAC ID of Ligand>


> <KEGG ID of Ligand>


> <ZINC ID of Ligand>
ZINC27317754

> <Number of Protein Chains in Target (>1 implies a multichain complex)>
1

> <BindingDB Target Chain Sequence>
MAAQKNNAPKEYGADSITILEGLEAVRKRPGMYIGSTGERGLHHLIWEVVDNAVDEAMAGFATRVDVKIHADGSVEVRDDGRGIPVEMHATGMPTIDVVMTQLHAGGKFDGETYAVSGGLHGVGVSVVNALSTRLEATVLRDGYEWFQYYDRSVPGKLKQGGETKETGTTIRFWADPEIFETTDYNFETVARRLQEMAFLNKGLTIELTDERVTAEEVVDDVVKDTAEAPKTADEKAAEATGPSKVKHRVFHYPGGLVDYVKHINRTKTPIQQSIIDFDGKGPGHEVEIAMQWNAGYSESVHTFANTINTHEGGTHEEGFRAALTSVVNRYAKDKKLLKDKDPNLTGDDIREGLAAVISVKVAEPQFEGQTKTKLGNTEVKSFVQKICNEQLQHWFEANPAEAKTVVNKAVSSAQARIAARKARELVRRKSATDIGGLPGKLADCRSTDPSKSELYVVEGDSAGGSAKSGRDSMFQAILPLRGKIINVEKARIDRVLKNTEVQSIITALGTGIHDEFDISKLRYHKIVLMADADVDGQHISTLLLTLLFRFMKPLVENGHIFLAQPPLYKLKWQRSEPEFAYSDRERDGLLEAGRAAGKKINVDDGIQRYKGLGEMDAKELWETTMDPSVRVLRQVTLDDAAAADELFSILMGEDVEARRSFITRNAKDVRFLDV

> <PDB ID(s) of Target Chain>
4BAE

> <UniProt (SwissProt) Recommended Name of Target Chain>
DNA gyrase subunit B

> <UniProt (SwissProt) Entry Name of Target Chain>
GYRB_MYCSM

> <UniProt (SwissProt) Primary ID of Target Chain>
P0C559

> <UniProt (SwissProt) Secondary ID(s) of Target Chain>
P48355,Q59555

> <UniProt (SwissProt) Alternative ID(s) of Target Chain>


> <UniProt (TrEMBL) Submitted Name of Target Chain>


> <UniProt (TrEMBL) Entry Name of Target Chain>


> <UniProt (TrEMBL) Primary ID of Target Chain>


> <UniProt (TrEMBL) Secondary ID(s) of Target Chain>


> <UniProt (TrEMBL) Alternative ID(s) of Target Chain>


$$$$

  Mrv0541 03201611132D          

 24 27  0  0  0  0            999 V2000
    5.7819   -3.1877    0.0000 N   0  0  0  0  0  0  0  0  0  0  0  0
    5.5247   -3.9725    0.0000 C   0  0  0  0  0  0  0  0  0  0  0  0
    4.7188   -4.1448    0.0000 C   0  0  0  0  0  0  0  0  0  0  0  0
    4.1657   -3.5326    0.0000 N   0  0  0  0  0  0  0  0  0  0  0  0
    4.4228   -2.7479    0.0000 C   0  0  0  0  0  0  0  0  0  0  0  0
    5.2288   -2.5756    0.0000 C   0  0  0  0  0  0  0  0  0  0  0  0
    6.5879   -3.0195    0.0000 C   0  0  0  0  0  0  0  0  0  0  0  0
    7.1409   -3.6318    0.0000 O   0  0  0  0  0  0  0  0  0  0  0  0
    6.8450   -2.2349    0.0000 N   0  0  0  0  0  0  0  0  0  0  0  0
    7.6399   -2.0197    0.0000 C   0  0  0  0  0  0  0  0  0  0  0  0
    7.8509   -1.2248    0.0000 C   0  0  0  0  0  0  0  0  0  0  0  0
    8.6500   -1.0096    0.0000 C   0  0  0  0  0  0  0  0  0  0  0  0
    9.2339   -1.5936    0.0000 C   0  0  0  0  0  0  0  0  0  0  0  0
    9.0187   -2.3884    0.0000 C   0  0  0  0  0  0  0  0  0  0  0  0
    8.2238   -2.6036    0.0000 C   0  0  0  0  0  0  0  0  0  0  0  0
    2.2039   -4.3704    0.0000 S   0  0  0  0  0  0  0  0  0  0  0  0
    3.0221   -4.4594    0.0000 N   0  0  0  0  0  0  0  0  0  0  0  0
    3.3597   -3.7049    0.0000 C   0  0  0  0  0  0  0  0  0  0  0  0
    2.7475   -3.1519    0.0000 C   0  0  0  0  0  0  0  0  0  0  0  0
    2.0316   -3.5644    0.0000 C   0  0  0  0  0  0  0  0  0  0  0  0
    1.3199   -3.1519    0.0000 C   0  0  0  0  0  0  0  0  0  0  0  0
    1.3199   -2.3269    0.0000 C   0  0  0  0  0  0  0  0  0  0  0  0
    2.0316   -1.9144    0.0000 C   0  0  0  0  0  0  0  0  0  0  0  0
    2.7475   -2.3269    0.0000 C   0  0  0  0  0  0  0  0  0  0  0  0
  1  2  1  0  0  0  0
  2  3  1  0  0  0  0
  3  4  1  0  0  0  0
  4  5  1  0  0  0  0
  5  6  1  0  0  0  0
  1  6  1  0  0  0  0
  7  8  2  0  0  0  0
  7  9  1  0  0  0  0
  1  7  1  0  0  0  0
 10 11  4  0  0  0  0
 11 12  4  0  0  0  0
 12 13  4  0  0  0  0
 13 14  4  0  0  0  0
 14 15  4  0  0  0  0
 10 15  4  0  0  0  0
  9 10  1  0  0  0  0
 16 17  4  0  0  0  0
 17 18  4  0  0  0  0
 18 19  4  0  0  0  0
 19 20  4  0  0  0  0
 16 20  4  0  0  0  0
 21 22  4  0  0  0  0
 22 23  4  0  0  0  0
 23 24  4  0  0  0  0
 19 24  4  0  0  0  0
 20 21  4  0  0  0  0
  4 18  1  0  0  0  0
M  END
> <From> 
www.bindingDB.org

> <BindingDB Reactant_set_id>
50254197

> <Ligand InChI>
InChI=1S/C18H18N4OS/c23-18(19-14-6-2-1-3-7-14)22-12-10-21(11-13-22)17-15-8-4-5-9-16(15)24-20-17/h1-9H,10-13H2,(H,19,23)

> <Ligand InChI Key>
XEESFFVLWVEUCD-UHFFFAOYSA-N

> <BindingDB MonomerID>
50037085

> <BindingDB Ligand Name>
CHEMBL3355796

> <Target Name Assigned by Curator or DataSource>
DNA gyrase subunit B

> <Target Source Organism According to Curator or DataSource>


> <Ki (nM)>


> <IC50 (nM)>
 19870

> <Kd (nM)>


> <EC50 (nM)>


> <kon (M-1-s-1)>


> <koff (s-1)>


> <pH>


> <Temp C>


> <Curation/DataSource>
ChEMBL

> <Article DOI>
10.1016/j.bmc.2014.10.016

> <PMID>
25456076

> <PubChem AID>


> <Patent Number>


> <Authors>
Reddy, KI; Srihari, K; Renuka, J; Sree, KS; Chuppala, A; Jeankumar, VU; Sridevi, JP; Babu, KS; Yogeeswari, P; Sriram, D

> <Institution>
TBA

> <Link to Ligand in BindingDB>
http://www.bindingdb.org/bind/chemsearch/marvin/MolStructure.jsp?monomerid=50037085

> <Link to Ligand-Target Pair in BindingDB>
http://www.bindingdb.org/jsp/dbsearch/PrimarySearch_ki.jsp?energyterm=kJ/mole&tag=pol&polymerid=50006452&target=DNA+gyrase+subunit+B&column=ki&startPg=0&Increment=50&submit=Search

> <Link to Ligand-Target Pair in BindingDB>
http://www.bindingdb.org/jsp/dbsearch/PrimarySearch_ki.jsp?energyterm=kJ/mole&tag=r21&monomerid=50037085&enzyme=DNA+gyrase+subunit+B&column=ki&startPg=0&Increment=50&submit=Search

> <Ligand HET ID in PDB>


> <PDB ID(s) for Ligand-Target Complex>


> <PubChem CID>
6459443

> <PubChem SID>
313067059

> <ChEBI ID of Ligand>


> <ChEMBL ID of Ligand>


> <DrugBank ID of Ligand>


> <IUPHAR_GRAC ID of Ligand>


> <KEGG ID of Ligand>


> <ZINC ID of Ligand>


> <Number of Protein Chains in Target (>1 implies a multichain complex)>
1

> <BindingDB Target Chain Sequence>
MAAQKNNAPKEYGADSITILEGLEAVRKRPGMYIGSTGERGLHHLIWEVVDNAVDEAMAGFATRVDVKIHADGSVEVRDDGRGIPVEMHATGMPTIDVVMTQLHAGGKFDGETYAVSGGLHGVGVSVVNALSTRLEATVLRDGYEWFQYYDRSVPGKLKQGGETKETGTTIRFWADPEIFETTDYNFETVARRLQEMAFLNKGLTIELTDERVTAEEVVDDVVKDTAEAPKTADEKAAEATGPSKVKHRVFHYPGGLVDYVKHINRTKTPIQQSIIDFDGKGPGHEVEIAMQWNAGYSESVHTFANTINTHEGGTHEEGFRAALTSVVNRYAKDKKLLKDKDPNLTGDDIREGLAAVISVKVAEPQFEGQTKTKLGNTEVKSFVQKICNEQLQHWFEANPAEAKTVVNKAVSSAQARIAARKARELVRRKSATDIGGLPGKLADCRSTDPSKSELYVVEGDSAGGSAKSGRDSMFQAILPLRGKIINVEKARIDRVLKNTEVQSIITALGTGIHDEFDISKLRYHKIVLMADADVDGQHISTLLLTLLFRFMKPLVENGHIFLAQPPLYKLKWQRSEPEFAYSDRERDGLLEAGRAAGKKINVDDGIQRYKGLGEMDAKELWETTMDPSVRVLRQVTLDDAAAADELFSILMGEDVEARRSFITRNAKDVRFLDV

> <PDB ID(s) of Target Chain>
4BAE

> <UniProt (SwissProt) Recommended Name of Target Chain>
DNA gyrase subunit B

> <UniProt (SwissProt) Entry Name of Target Chain>
GYRB_MYCSM

> <UniProt (SwissProt) Primary ID of Target Chain>
P0C559

> <UniProt (SwissProt) Secondary ID(s) of Target Chain>
P48355,Q59555

> <UniProt (SwissProt) Alternative ID(s) of Target Chain>


> <UniProt (TrEMBL) Submitted Name of Target Chain>


> <UniProt (TrEMBL) Entry Name of Target Chain>


> <UniProt (TrEMBL) Primary ID of Target Chain>


> <UniProt (TrEMBL) Secondary ID(s) of Target Chain>


> <UniProt (TrEMBL) Alternative ID(s) of Target Chain>


$$$$

  SciTegic10201713462D

 29 32  0  0  0  0            999 V2000
    2.2562   -2.3401    0.0000 C   0  0
    2.2550   -3.1596    0.0000 C   0  0
    2.9631   -3.5686    0.0000 C   0  0
    2.9613   -1.9312    0.0000 C   0  0
    3.6699   -2.3365    0.0000 C   0  0
    3.6747   -3.1597    0.0000 C   0  0
    4.4591   -3.4095    0.0000 N   0  0
    4.9391   -2.7407    0.0000 C   0  0
    4.4513   -2.0776    0.0000 C   0  0
    4.6992   -1.2989    0.0000 O   0  0
    5.7563   -2.7358    0.0000 O   0  0
    4.7162   -4.1852    0.0000 C   0  0
    4.1729   -4.7957    0.0000 C   0  0
    4.4300   -5.5714    0.0000 N   0  0
    3.8895   -6.1802    0.0000 C   0  0
    4.1436   -6.9531    0.0000 C   0  0
    4.9434   -7.1225    0.0000 N   0  0
    5.4887   -6.5127    0.0000 C   0  0
    5.2343   -5.7333    0.0000 C   0  0
    5.1975   -7.8992    0.0000 N   0  0
    5.9972   -8.0675    0.0000 C   0  0
    6.5427   -7.4591    0.0000 C   0  0
    7.3545   -7.5414    0.0000 C   0  0
    7.6854   -6.7942    0.0000 C   0  0
    7.0769   -6.2486    0.0000 C   0  0
    6.3701   -6.6587    0.0000 O   0  0
    7.1571   -5.4330    0.0000 N   0  3
    6.4950   -4.9541    0.0000 O   0  0
    7.9030   -5.0990    0.0000 O   0  5
  1  2  2  0
  2  3  1  0
  3  6  2  0
  5  4  2  0
  4  1  1  0
  5  6  1  0
  6  7  1  0
  7  8  1  0
  8  9  1  0
  9  5  1  0
  9 10  2  0
  8 11  2  0
  7 12  1  0
 12 13  1  0
 13 14  1  0
 14 15  1  0
 14 19  1  0
 15 16  1  0
 16 17  1  0
 17 18  1  0
 18 19  1  0
 17 20  1  0
 20 21  1  0
 21 22  1  0
 22 23  2  0
 23 24  1  0
 24 25  2  0
 25 26  1  0
 26 22  1  0
 27 28  2  0
 27 29  1  0
 25 27  1  0
M  CHG  2  27   1  29  -1
M  END
> <From> 
www.bindingDB.org

> <BindingDB Reactant_set_id>
50543811

> <Ligand InChI>
InChI=1S/C19H21N5O5/c25-18-15-3-1-2-4-16(15)23(19(18)26)12-9-21-7-10-22(11-8-21)20-13-14-5-6-17(29-14)24(27)28/h1-6,20H,7-13H2

> <Ligand InChI Key>
QJGFINOWEIVVRR-UHFFFAOYSA-N

> <BindingDB MonomerID>
50208278

> <BindingDB Ligand Name>
CHEMBL3883815

> <Target Name Assigned by Curator or DataSource>
DNA gyrase subunit B

> <Target Source Organism According to Curator or DataSource>


> <Ki (nM)>


> <IC50 (nM)>
 20200

> <Kd (nM)>


> <EC50 (nM)>


> <kon (M-1-s-1)>


> <koff (s-1)>


> <pH>


> <Temp C>


> <Curation/DataSource>
ChEMBL

> <Article DOI>
10.1016/j.ejmech.2016.08.034

> <PMID>
27569197

> <PubChem AID>


> <Patent Number>


> <Authors>
Chaudhari, K; Surana, S; Jain, P; Patel, HM

> <Institution>
R. C. Patel Institute of Pharmaceutical Education and Research

> <Link to Ligand in BindingDB>
http://www.bindingdb.org/bind/chemsearch/marvin/MolStructure.jsp?monomerid=50208278

> <Link to Ligand-Target Pair in BindingDB>
http://www.bindingdb.org/jsp/dbsearch/PrimarySearch_ki.jsp?energyterm=kJ/mole&tag=pol&polymerid=50006452&target=DNA+gyrase+subunit+B&column=ki&startPg=0&Increment=50&submit=Search

> <Link to Ligand-Target Pair in BindingDB>
http://www.bindingdb.org/jsp/dbsearch/PrimarySearch_ki.jsp?energyterm=kJ/mole&tag=r21&monomerid=50208278&enzyme=DNA+gyrase+subunit+B&column=ki&startPg=0&Increment=50&submit=Search

> <Ligand HET ID in PDB>


> <PDB ID(s) for Ligand-Target Complex>


> <PubChem CID>
134130724

> <PubChem SID>
375981971

> <ChEBI ID of Ligand>


> <ChEMBL ID of Ligand>


> <DrugBank ID of Ligand>


> <IUPHAR_GRAC ID of Ligand>


> <KEGG ID of Ligand>


> <ZINC ID of Ligand>


> <Number of Protein Chains in Target (>1 implies a multichain complex)>
1

> <BindingDB Target Chain Sequence>
MAAQKNNAPKEYGADSITILEGLEAVRKRPGMYIGSTGERGLHHLIWEVVDNAVDEAMAGFATRVDVKIHADGSVEVRDDGRGIPVEMHATGMPTIDVVMTQLHAGGKFDGETYAVSGGLHGVGVSVVNALSTRLEATVLRDGYEWFQYYDRSVPGKLKQGGETKETGTTIRFWADPEIFETTDYNFETVARRLQEMAFLNKGLTIELTDERVTAEEVVDDVVKDTAEAPKTADEKAAEATGPSKVKHRVFHYPGGLVDYVKHINRTKTPIQQSIIDFDGKGPGHEVEIAMQWNAGYSESVHTFANTINTHEGGTHEEGFRAALTSVVNRYAKDKKLLKDKDPNLTGDDIREGLAAVISVKVAEPQFEGQTKTKLGNTEVKSFVQKICNEQLQHWFEANPAEAKTVVNKAVSSAQARIAARKARELVRRKSATDIGGLPGKLADCRSTDPSKSELYVVEGDSAGGSAKSGRDSMFQAILPLRGKIINVEKARIDRVLKNTEVQSIITALGTGIHDEFDISKLRYHKIVLMADADVDGQHISTLLLTLLFRFMKPLVENGHIFLAQPPLYKLKWQRSEPEFAYSDRERDGLLEAGRAAGKKINVDDGIQRYKGLGEMDAKELWETTMDPSVRVLRQVTLDDAAAADELFSILMGEDVEARRSFITRNAKDVRFLDV

> <PDB ID(s) of Target Chain>
4BAE

> <UniProt (SwissProt) Recommended Name of Target Chain>
DNA gyrase subunit B

> <UniProt (SwissProt) Entry Name of Target Chain>
GYRB_MYCSM

> <UniProt (SwissProt) Primary ID of Target Chain>
P0C559

> <UniProt (SwissProt) Secondary ID(s) of Target Chain>
P48355,Q59555

> <UniProt (SwissProt) Alternative ID(s) of Target Chain>


> <UniProt (TrEMBL) Submitted Name of Target Chain>


> <UniProt (TrEMBL) Entry Name of Target Chain>


> <UniProt (TrEMBL) Primary ID of Target Chain>


> <UniProt (TrEMBL) Secondary ID(s) of Target Chain>


> <UniProt (TrEMBL) Alternative ID(s) of Target Chain>


$$$$

  SciTegic10231716202D

 29 32  0  0  0  0            999 V2000
   20.3169  -17.9988    0.0000 C   0  0
   20.3158  -18.8183    0.0000 C   0  0
   21.0238  -19.2273    0.0000 C   0  0
   21.0220  -17.5899    0.0000 C   0  0
   21.7307  -17.9952    0.0000 C   0  0
   21.7355  -18.8184    0.0000 C   0  0
   22.5199  -19.0682    0.0000 N   0  0
   22.9999  -18.3994    0.0000 C   0  0
   22.5121  -17.7363    0.0000 C   0  0
   22.7600  -16.9576    0.0000 O   0  0
   23.8170  -18.3945    0.0000 O   0  0
   22.7769  -19.8439    0.0000 C   0  0
   22.2337  -20.4544    0.0000 C   0  0
   22.4907  -21.2301    0.0000 N   0  0
   21.9503  -21.8389    0.0000 C   0  0
   22.2043  -22.6118    0.0000 C   0  0
   23.0041  -22.7812    0.0000 N   0  0
   23.5495  -22.1714    0.0000 C   0  0
   23.2951  -21.3921    0.0000 C   0  0
   23.2582  -23.5579    0.0000 N   0  0
   24.0579  -23.7262    0.0000 C   0  0
   24.6035  -23.1178    0.0000 C   0  0
   25.4023  -23.2898    0.0000 C   0  0
   25.9476  -22.6822    0.0000 C   0  0
   25.6936  -21.9045    0.0000 C   0  0
   24.8893  -21.7380    0.0000 C   0  0
   24.3475  -22.3469    0.0000 C   0  0
   25.6544  -24.0671    0.0000 F   0  0
   19.6091  -17.5904    0.0000 F   0  0
  1  2  2  0
  2  3  1  0
  3  6  2  0
  5  4  2  0
  4  1  1  0
  5  6  1  0
  6  7  1  0
  7  8  1  0
  8  9  1  0
  9  5  1  0
  9 10  2  0
  8 11  2  0
  7 12  1  0
 12 13  1  0
 13 14  1  0
 14 15  1  0
 14 19  1  0
 15 16  1  0
 16 17  1  0
 17 18  1  0
 18 19  1  0
 17 20  1  0
 20 21  1  0
 21 22  1  0
 22 23  2  0
 23 24  1  0
 24 25  2  0
 25 26  1  0
 26 27  2  0
 27 22  1  0
 23 28  1  0
  1 29  1  0
M  END
> <From> 
www.bindingDB.org

> <BindingDB Reactant_set_id>
50543802

> <Ligand InChI>
InChI=1S/C21H22F2N4O2/c22-16-5-6-19-17(13-16)20(28)21(29)27(19)12-9-25-7-10-26(11-8-25)24-14-15-3-1-2-4-18(15)23/h1-6,13,24H,7-12,14H2

> <Ligand InChI Key>
RZIPRWVQURCAEC-UHFFFAOYSA-N

> <BindingDB MonomerID>
50208269

> <BindingDB Ligand Name>
CHEMBL3884702

> <Target Name Assigned by Curator or DataSource>
DNA gyrase subunit B

> <Target Source Organism According to Curator or DataSource>


> <Ki (nM)>


> <IC50 (nM)>
 20300

> <Kd (nM)>


> <EC50 (nM)>


> <kon (M-1-s-1)>


> <koff (s-1)>


> <pH>


> <Temp C>


> <Curation/DataSource>
ChEMBL

> <Article DOI>
10.1016/j.ejmech.2016.08.034

> <PMID>
27569197

> <PubChem AID>


> <Patent Number>


> <Authors>
Chaudhari, K; Surana, S; Jain, P; Patel, HM

> <Institution>
R. C. Patel Institute of Pharmaceutical Education and Research

> <Link to Ligand in BindingDB>
http://www.bindingdb.org/bind/chemsearch/marvin/MolStructure.jsp?monomerid=50208269

> <Link to Ligand-Target Pair in BindingDB>
http://www.bindingdb.org/jsp/dbsearch/PrimarySearch_ki.jsp?energyterm=kJ/mole&tag=pol&polymerid=50006452&target=DNA+gyrase+subunit+B&column=ki&startPg=0&Increment=50&submit=Search

> <Link to Ligand-Target Pair in BindingDB>
http://www.bindingdb.org/jsp/dbsearch/PrimarySearch_ki.jsp?energyterm=kJ/mole&tag=r21&monomerid=50208269&enzyme=DNA+gyrase+subunit+B&column=ki&startPg=0&Increment=50&submit=Search

> <Ligand HET ID in PDB>


> <PDB ID(s) for Ligand-Target Complex>


> <PubChem CID>
134129895

> <PubChem SID>
375981962

> <ChEBI ID of Ligand>


> <ChEMBL ID of Ligand>


> <DrugBank ID of Ligand>


> <IUPHAR_GRAC ID of Ligand>


> <KEGG ID of Ligand>


> <ZINC ID of Ligand>


> <Number of Protein Chains in Target (>1 implies a multichain complex)>
1

> <BindingDB Target Chain Sequence>
MAAQKNNAPKEYGADSITILEGLEAVRKRPGMYIGSTGERGLHHLIWEVVDNAVDEAMAGFATRVDVKIHADGSVEVRDDGRGIPVEMHATGMPTIDVVMTQLHAGGKFDGETYAVSGGLHGVGVSVVNALSTRLEATVLRDGYEWFQYYDRSVPGKLKQGGETKETGTTIRFWADPEIFETTDYNFETVARRLQEMAFLNKGLTIELTDERVTAEEVVDDVVKDTAEAPKTADEKAAEATGPSKVKHRVFHYPGGLVDYVKHINRTKTPIQQSIIDFDGKGPGHEVEIAMQWNAGYSESVHTFANTINTHEGGTHEEGFRAALTSVVNRYAKDKKLLKDKDPNLTGDDIREGLAAVISVKVAEPQFEGQTKTKLGNTEVKSFVQKICNEQLQHWFEANPAEAKTVVNKAVSSAQARIAARKARELVRRKSATDIGGLPGKLADCRSTDPSKSELYVVEGDSAGGSAKSGRDSMFQAILPLRGKIINVEKARIDRVLKNTEVQSIITALGTGIHDEFDISKLRYHKIVLMADADVDGQHISTLLLTLLFRFMKPLVENGHIFLAQPPLYKLKWQRSEPEFAYSDRERDGLLEAGRAAGKKINVDDGIQRYKGLGEMDAKELWETTMDPSVRVLRQVTLDDAAAADELFSILMGEDVEARRSFITRNAKDVRFLDV

> <PDB ID(s) of Target Chain>
4BAE

> <UniProt (SwissProt) Recommended Name of Target Chain>
DNA gyrase subunit B

> <UniProt (SwissProt) Entry Name of Target Chain>
GYRB_MYCSM

> <UniProt (SwissProt) Primary ID of Target Chain>
P0C559

> <UniProt (SwissProt) Secondary ID(s) of Target Chain>
P48355,Q59555

> <UniProt (SwissProt) Alternative ID(s) of Target Chain>


> <UniProt (TrEMBL) Submitted Name of Target Chain>


> <UniProt (TrEMBL) Entry Name of Target Chain>


> <UniProt (TrEMBL) Primary ID of Target Chain>


> <UniProt (TrEMBL) Secondary ID(s) of Target Chain>


> <UniProt (TrEMBL) Alternative ID(s) of Target Chain>


$$$$

  Mrv0541 03201611132D          

 30 33  0  0  0  0            999 V2000
   22.8580  -18.5988    0.0000 O   0  0  0  0  0  0  0  0  0  0  0  0
   23.3461  -17.9344    0.0000 C   0  0  0  0  0  0  0  0  0  0  0  0
   22.8580  -17.2657    0.0000 C   0  0  0  0  0  0  0  0  0  0  0  0
   22.0787  -17.5225    0.0000 C   0  0  0  0  0  0  0  0  0  0  0  0
   22.0787  -18.3463    0.0000 C   0  0  0  0  0  0  0  0  0  0  0  0
   21.3638  -17.1106    0.0000 C   0  0  0  0  0  0  0  0  0  0  0  0
   20.6490  -17.5225    0.0000 C   0  0  0  0  0  0  0  0  0  0  0  0
   20.6490  -18.3463    0.0000 C   0  0  0  0  0  0  0  0  0  0  0  0
   21.3638  -18.7582    0.0000 C   0  0  0  0  0  0  0  0  0  0  0  0
   24.1699  -17.9344    0.0000 C   0  0  0  0  0  0  0  0  0  0  0  0
   24.5818  -18.6450    0.0000 O   0  0  0  0  0  0  0  0  0  0  0  0
   24.5818  -17.2196    0.0000 O   0  0  0  0  0  0  0  0  0  0  0  0
   19.9383  -17.1106    0.0000 N   0  0  0  0  0  0  0  0  0  0  0  0
   19.2235  -17.5225    0.0000 C   0  0  0  0  0  0  0  0  0  0  0  0
   18.5087  -17.1106    0.0000 C   0  0  0  0  0  0  0  0  0  0  0  0
   18.5087  -16.2868    0.0000 N   0  0  0  0  0  0  0  0  0  0  0  0
   19.2235  -15.8708    0.0000 C   0  0  0  0  0  0  0  0  0  0  0  0
   19.9383  -16.2868    0.0000 C   0  0  0  0  0  0  0  0  0  0  0  0
   17.7981  -15.8708    0.0000 C   0  0  0  0  0  0  0  0  0  0  0  0
   17.0833  -16.2868    0.0000 N   0  0  0  0  0  0  0  0  0  0  0  0
   17.7981  -15.0470    0.0000 S   0  0  0  0  0  0  0  0  0  0  0  0
   16.3685  -15.8708    0.0000 C   0  0  0  0  0  0  0  0  0  0  0  0
   15.6578  -16.2868    0.0000 C   0  0  0  0  0  0  0  0  0  0  0  0
   15.6578  -17.1106    0.0000 C   0  0  0  0  0  0  0  0  0  0  0  0
   14.9431  -17.5225    0.0000 C   0  0  0  0  0  0  0  0  0  0  0  0
   14.2282  -17.1106    0.0000 C   0  0  0  0  0  0  0  0  0  0  0  0
   14.2282  -16.2868    0.0000 C   0  0  0  0  0  0  0  0  0  0  0  0
   14.9431  -15.8708    0.0000 C   0  0  0  0  0  0  0  0  0  0  0  0
   25.4056  -17.2196    0.0000 C   0  0  0  0  0  0  0  0  0  0  0  0
   25.8175  -16.5048    0.0000 C   0  0  0  0  0  0  0  0  0  0  0  0
  1  2  4  0  0  0  0
  2  3  4  0  0  0  0
  3  4  4  0  0  0  0
  4  5  4  0  0  0  0
  1  5  4  0  0  0  0
  6  7  4  0  0  0  0
  7  8  4  0  0  0  0
  8  9  4  0  0  0  0
  5  9  4  0  0  0  0
  4  6  4  0  0  0  0
 10 11  2  0  0  0  0
 10 12  1  0  0  0  0
  2 10  1  0  0  0  0
 13 14  1  0  0  0  0
 14 15  1  0  0  0  0
 15 16  1  0  0  0  0
 16 17  1  0  0  0  0
 17 18  1  0  0  0  0
 13 18  1  0  0  0  0
 19 20  1  0  0  0  0
 19 21  2  0  0  0  0
 22 23  1  0  0  0  0
 23 24  4  0  0  0  0
 24 25  4  0  0  0  0
 25 26  4  0  0  0  0
 26 27  4  0  0  0  0
 27 28  4  0  0  0  0
 23 28  4  0  0  0  0
 20 22  1  0  0  0  0
 16 19  1  0  0  0  0
  7 13  1  0  0  0  0
 29 30  1  0  0  0  0
 12 29  1  0  0  0  0
M  END
> <From> 
www.bindingDB.org

> <BindingDB Reactant_set_id>
50254199

> <Ligand InChI>
InChI=1S/C23H25N3O3S/c1-2-28-22(27)21-15-18-14-19(8-9-20(18)29-21)25-10-12-26(13-11-25)23(30)24-16-17-6-4-3-5-7-17/h3-9,14-15H,2,10-13,16H2,1H3,(H,24,30)

> <Ligand InChI Key>
PJRHIHPZALUVEJ-UHFFFAOYSA-N

> <BindingDB MonomerID>
50037087

> <BindingDB Ligand Name>
CHEMBL3355794

> <Target Name Assigned by Curator or DataSource>
DNA gyrase subunit B

> <Target Source Organism According to Curator or DataSource>


> <Ki (nM)>


> <IC50 (nM)>
 20450

> <Kd (nM)>


> <EC50 (nM)>


> <kon (M-1-s-1)>


> <koff (s-1)>


> <pH>


> <Temp C>


> <Curation/DataSource>
ChEMBL

> <Article DOI>
10.1016/j.bmc.2014.10.016

> <PMID>
25456076

> <PubChem AID>


> <Patent Number>


> <Authors>
Reddy, KI; Srihari, K; Renuka, J; Sree, KS; Chuppala, A; Jeankumar, VU; Sridevi, JP; Babu, KS; Yogeeswari, P; Sriram, D

> <Institution>
TBA

> <Link to Ligand in BindingDB>
http://www.bindingdb.org/bind/chemsearch/marvin/MolStructure.jsp?monomerid=50037087

> <Link to Ligand-Target Pair in BindingDB>
http://www.bindingdb.org/jsp/dbsearch/PrimarySearch_ki.jsp?energyterm=kJ/mole&tag=pol&polymerid=50006452&target=DNA+gyrase+subunit+B&column=ki&startPg=0&Increment=50&submit=Search

> <Link to Ligand-Target Pair in BindingDB>
http://www.bindingdb.org/jsp/dbsearch/PrimarySearch_ki.jsp?energyterm=kJ/mole&tag=r21&monomerid=50037087&enzyme=DNA+gyrase+subunit+B&column=ki&startPg=0&Increment=50&submit=Search

> <Ligand HET ID in PDB>


> <PDB ID(s) for Ligand-Target Complex>


> <PubChem CID>
118721094

> <PubChem SID>
313067061

> <ChEBI ID of Ligand>


> <ChEMBL ID of Ligand>


> <DrugBank ID of Ligand>


> <IUPHAR_GRAC ID of Ligand>


> <KEGG ID of Ligand>


> <ZINC ID of Ligand>


> <Number of Protein Chains in Target (>1 implies a multichain complex)>
1

> <BindingDB Target Chain Sequence>
MAAQKNNAPKEYGADSITILEGLEAVRKRPGMYIGSTGERGLHHLIWEVVDNAVDEAMAGFATRVDVKIHADGSVEVRDDGRGIPVEMHATGMPTIDVVMTQLHAGGKFDGETYAVSGGLHGVGVSVVNALSTRLEATVLRDGYEWFQYYDRSVPGKLKQGGETKETGTTIRFWADPEIFETTDYNFETVARRLQEMAFLNKGLTIELTDERVTAEEVVDDVVKDTAEAPKTADEKAAEATGPSKVKHRVFHYPGGLVDYVKHINRTKTPIQQSIIDFDGKGPGHEVEIAMQWNAGYSESVHTFANTINTHEGGTHEEGFRAALTSVVNRYAKDKKLLKDKDPNLTGDDIREGLAAVISVKVAEPQFEGQTKTKLGNTEVKSFVQKICNEQLQHWFEANPAEAKTVVNKAVSSAQARIAARKARELVRRKSATDIGGLPGKLADCRSTDPSKSELYVVEGDSAGGSAKSGRDSMFQAILPLRGKIINVEKARIDRVLKNTEVQSIITALGTGIHDEFDISKLRYHKIVLMADADVDGQHISTLLLTLLFRFMKPLVENGHIFLAQPPLYKLKWQRSEPEFAYSDRERDGLLEAGRAAGKKINVDDGIQRYKGLGEMDAKELWETTMDPSVRVLRQVTLDDAAAADELFSILMGEDVEARRSFITRNAKDVRFLDV

> <PDB ID(s) of Target Chain>
4BAE

> <UniProt (SwissProt) Recommended Name of Target Chain>
DNA gyrase subunit B

> <UniProt (SwissProt) Entry Name of Target Chain>
GYRB_MYCSM

> <UniProt (SwissProt) Primary ID of Target Chain>
P0C559

> <UniProt (SwissProt) Secondary ID(s) of Target Chain>
P48355,Q59555

> <UniProt (SwissProt) Alternative ID(s) of Target Chain>


> <UniProt (TrEMBL) Submitted Name of Target Chain>


> <UniProt (TrEMBL) Entry Name of Target Chain>


> <UniProt (TrEMBL) Primary ID of Target Chain>


> <UniProt (TrEMBL) Secondary ID(s) of Target Chain>


> <UniProt (TrEMBL) Alternative ID(s) of Target Chain>


$$$$

  SciTegic09081514182D

 28 31  0  0  0  0            999 V2000
   -2.6111    0.7486    0.0000 C   0  0
   -2.6111   -0.7486    0.0000 C   0  0
   -1.2964   -1.4973    0.0000 C   0  0
   -1.2964    1.4973    0.0000 C   0  0
    0.0000    0.7486    0.0000 C   0  0
    0.0000   -0.7486    0.0000 C   0  0
    1.2964   -1.4973    0.0000 N   0  0
    2.5929   -0.7486    0.0000 C   0  0
    2.5929    0.7486    0.0000 C   0  0
    1.2964    1.4973    0.0000 C   0  0
    1.2964    2.9980    0.0000 N   0  0
   -0.0014    3.7503    0.0000 C   0  0
    0.0011    5.2503    0.0000 C   0  0
    1.3014    5.9981    0.0000 C   0  0
    2.5992    5.2460    0.0000 C   0  0
    2.5967    3.7460    0.0000 C   0  0
    1.3069    7.4990    0.0000 N   0  0
    2.6090    8.2454    0.0000 C   0  0
    3.6462    7.6419    0.0000 O   0  0
    2.6145    9.7462    0.0000 N   0  0
    3.9166   10.4926    0.0000 C   0  0
    3.9243   11.9926    0.0000 C   0  0
    5.2272   12.7360    0.0000 C   0  0
    6.5224   11.9794    0.0000 C   0  0
    6.5147   10.4794    0.0000 C   0  0
    5.2119    9.7360    0.0000 C   0  0
    3.6321   -1.3486    0.0000 C   0  0
    7.5647   12.5740    0.0000 C   0  0
  1  2  2  0
  2  3  1  0
  3  6  2  0
  5  4  2  0
  4  1  1  0
  5  6  1  0
  6  7  1  0
  7  8  2  0
  8  9  1  0
  9 10  2  0
 10  5  1  0
 11 12  1  0
 11 16  1  0
 12 13  1  0
 13 14  1  0
 14 15  1  0
 15 16  1  0
 10 11  1  0
 14 17  1  0
 17 18  1  0
 18 19  2  0
 18 20  1  0
 20 21  1  0
 21 22  2  0
 22 23  1  0
 23 24  2  0
 24 25  1  0
 25 26  2  0
 26 21  1  0
  8 27  1  0
 24 28  1  0
M  END
> <From> 
www.bindingDB.org

> <BindingDB Reactant_set_id>
50303816

> <Ligand InChI>
InChI=1S/C23H26N4O/c1-16-7-9-18(10-8-16)25-23(28)26-19-11-13-27(14-12-19)22-15-17(2)24-21-6-4-3-5-20(21)22/h3-10,15,19H,11-14H2,1-2H3,(H2,25,26,28)

> <Ligand InChI Key>
RFABBRJKPBHVGL-UHFFFAOYSA-N

> <BindingDB MonomerID>
50066963

> <BindingDB Ligand Name>
CHEMBL3403246

> <Target Name Assigned by Curator or DataSource>
DNA gyrase subunit B

> <Target Source Organism According to Curator or DataSource>


> <Ki (nM)>


> <IC50 (nM)>
 20480

> <Kd (nM)>


> <EC50 (nM)>


> <kon (M-1-s-1)>


> <koff (s-1)>


> <pH>


> <Temp C>


> <Curation/DataSource>
ChEMBL

> <Article DOI>
10.1016/j.bmc.2015.03.004

> <PMID>
25801151

> <PubChem AID>


> <Patent Number>


> <Authors>
Medapi, B; Renuka, J; Saxena, S; Sridevi, JP; Medishetti, R; Kulkarni, P; Yogeeswari, P; Sriram, D

> <Institution>
Birla Institute of Technology&amp; Science-Pilani

> <Link to Ligand in BindingDB>
http://www.bindingdb.org/bind/chemsearch/marvin/MolStructure.jsp?monomerid=50066963

> <Link to Ligand-Target Pair in BindingDB>
http://www.bindingdb.org/jsp/dbsearch/PrimarySearch_ki.jsp?energyterm=kJ/mole&tag=pol&polymerid=50006452&target=DNA+gyrase+subunit+B&column=ki&startPg=0&Increment=50&submit=Search

> <Link to Ligand-Target Pair in BindingDB>
http://www.bindingdb.org/jsp/dbsearch/PrimarySearch_ki.jsp?energyterm=kJ/mole&tag=r21&monomerid=50066963&enzyme=DNA+gyrase+subunit+B&column=ki&startPg=0&Increment=50&submit=Search

> <Ligand HET ID in PDB>


> <PDB ID(s) for Ligand-Target Complex>


> <PubChem CID>
118729662

> <PubChem SID>
103961499

> <ChEBI ID of Ligand>


> <ChEMBL ID of Ligand>
CHEMBL283600

> <DrugBank ID of Ligand>


> <IUPHAR_GRAC ID of Ligand>


> <KEGG ID of Ligand>


> <ZINC ID of Ligand>
ZINC13781217

> <Number of Protein Chains in Target (>1 implies a multichain complex)>
1

> <BindingDB Target Chain Sequence>
MAAQKNNAPKEYGADSITILEGLEAVRKRPGMYIGSTGERGLHHLIWEVVDNAVDEAMAGFATRVDVKIHADGSVEVRDDGRGIPVEMHATGMPTIDVVMTQLHAGGKFDGETYAVSGGLHGVGVSVVNALSTRLEATVLRDGYEWFQYYDRSVPGKLKQGGETKETGTTIRFWADPEIFETTDYNFETVARRLQEMAFLNKGLTIELTDERVTAEEVVDDVVKDTAEAPKTADEKAAEATGPSKVKHRVFHYPGGLVDYVKHINRTKTPIQQSIIDFDGKGPGHEVEIAMQWNAGYSESVHTFANTINTHEGGTHEEGFRAALTSVVNRYAKDKKLLKDKDPNLTGDDIREGLAAVISVKVAEPQFEGQTKTKLGNTEVKSFVQKICNEQLQHWFEANPAEAKTVVNKAVSSAQARIAARKARELVRRKSATDIGGLPGKLADCRSTDPSKSELYVVEGDSAGGSAKSGRDSMFQAILPLRGKIINVEKARIDRVLKNTEVQSIITALGTGIHDEFDISKLRYHKIVLMADADVDGQHISTLLLTLLFRFMKPLVENGHIFLAQPPLYKLKWQRSEPEFAYSDRERDGLLEAGRAAGKKINVDDGIQRYKGLGEMDAKELWETTMDPSVRVLRQVTLDDAAAADELFSILMGEDVEARRSFITRNAKDVRFLDV

> <PDB ID(s) of Target Chain>
4BAE

> <UniProt (SwissProt) Recommended Name of Target Chain>
DNA gyrase subunit B

> <UniProt (SwissProt) Entry Name of Target Chain>
GYRB_MYCSM

> <UniProt (SwissProt) Primary ID of Target Chain>
P0C559

> <UniProt (SwissProt) Secondary ID(s) of Target Chain>
P48355,Q59555

> <UniProt (SwissProt) Alternative ID(s) of Target Chain>


> <UniProt (TrEMBL) Submitted Name of Target Chain>


> <UniProt (TrEMBL) Entry Name of Target Chain>


> <UniProt (TrEMBL) Primary ID of Target Chain>


> <UniProt (TrEMBL) Secondary ID(s) of Target Chain>


> <UniProt (TrEMBL) Alternative ID(s) of Target Chain>


$$$$

  SciTegic09081514182D

 28 31  0  0  0  0            999 V2000
   -2.6111    0.7486    0.0000 C   0  0
   -2.6111   -0.7486    0.0000 C   0  0
   -1.2964   -1.4973    0.0000 C   0  0
   -1.2964    1.4973    0.0000 C   0  0
    0.0000    0.7486    0.0000 C   0  0
    0.0000   -0.7486    0.0000 C   0  0
    1.2964   -1.4973    0.0000 N   0  0
    2.5929   -0.7486    0.0000 C   0  0
    2.5929    0.7486    0.0000 C   0  0
    1.2964    1.4973    0.0000 C   0  0
    1.2964    2.9980    0.0000 N   0  0
   -0.0014    3.7503    0.0000 C   0  0
    0.0011    5.2503    0.0000 C   0  0
    1.3014    5.9981    0.0000 C   0  0
    2.5992    5.2460    0.0000 C   0  0
    2.5967    3.7460    0.0000 C   0  0
    1.3069    7.4990    0.0000 N   0  0
    2.6090    8.2454    0.0000 C   0  0
    3.6462    7.6419    0.0000 O   0  0
    2.6145    9.7462    0.0000 N   0  0
    3.9166   10.4926    0.0000 C   0  0
    3.9243   11.9926    0.0000 C   0  0
    5.2272   12.7360    0.0000 C   0  0
    6.5224   11.9794    0.0000 C   0  0
    6.5147   10.4794    0.0000 C   0  0
    5.2119    9.7360    0.0000 C   0  0
    3.6321   -1.3486    0.0000 C   0  0
   -3.6486    1.3517    0.0000 F   0  0
  1  2  2  0
  2  3  1  0
  3  6  2  0
  5  4  2  0
  4  1  1  0
  5  6  1  0
  6  7  1  0
  7  8  2  0
  8  9  1  0
  9 10  2  0
 10  5  1  0
 11 12  1  0
 11 16  1  0
 12 13  1  0
 13 14  1  0
 14 15  1  0
 15 16  1  0
 10 11  1  0
 14 17  1  0
 17 18  1  0
 18 19  2  0
 18 20  1  0
 20 21  1  0
 21 22  2  0
 22 23  1  0
 23 24  2  0
 24 25  1  0
 25 26  2  0
 26 21  1  0
  8 27  1  0
  1 28  1  0
M  END
> <From> 
www.bindingDB.org

> <BindingDB Reactant_set_id>
50303805

> <Ligand InChI>
InChI=1S/C22H23FN4O/c1-15-13-21(19-14-16(23)7-8-20(19)24-15)27-11-9-18(10-12-27)26-22(28)25-17-5-3-2-4-6-17/h2-8,13-14,18H,9-12H2,1H3,(H2,25,26,28)

> <Ligand InChI Key>
VGCJZQNWNMFQBN-UHFFFAOYSA-N

> <BindingDB MonomerID>
50066969

> <BindingDB Ligand Name>
CHEMBL3403254

> <Target Name Assigned by Curator or DataSource>
DNA gyrase subunit B

> <Target Source Organism According to Curator or DataSource>


> <Ki (nM)>


> <IC50 (nM)>
 20520

> <Kd (nM)>


> <EC50 (nM)>


> <kon (M-1-s-1)>


> <koff (s-1)>


> <pH>


> <Temp C>


> <Curation/DataSource>
ChEMBL

> <Article DOI>
10.1016/j.bmc.2015.03.004

> <PMID>
25801151

> <PubChem AID>


> <Patent Number>


> <Authors>
Medapi, B; Renuka, J; Saxena, S; Sridevi, JP; Medishetti, R; Kulkarni, P; Yogeeswari, P; Sriram, D

> <Institution>
Birla Institute of Technology&amp; Science-Pilani

> <Link to Ligand in BindingDB>
http://www.bindingdb.org/bind/chemsearch/marvin/MolStructure.jsp?monomerid=50066969

> <Link to Ligand-Target Pair in BindingDB>
http://www.bindingdb.org/jsp/dbsearch/PrimarySearch_ki.jsp?energyterm=kJ/mole&tag=pol&polymerid=50006452&target=DNA+gyrase+subunit+B&column=ki&startPg=0&Increment=50&submit=Search

> <Link to Ligand-Target Pair in BindingDB>
http://www.bindingdb.org/jsp/dbsearch/PrimarySearch_ki.jsp?energyterm=kJ/mole&tag=r21&monomerid=50066969&enzyme=DNA+gyrase+subunit+B&column=ki&startPg=0&Increment=50&submit=Search

> <Ligand HET ID in PDB>


> <PDB ID(s) for Ligand-Target Complex>


> <PubChem CID>
118729670

> <PubChem SID>
103961505

> <ChEBI ID of Ligand>


> <ChEMBL ID of Ligand>


> <DrugBank ID of Ligand>


> <IUPHAR_GRAC ID of Ligand>


> <KEGG ID of Ligand>


> <ZINC ID of Ligand>
ZINC36295084

> <Number of Protein Chains in Target (>1 implies a multichain complex)>
1

> <BindingDB Target Chain Sequence>
MAAQKNNAPKEYGADSITILEGLEAVRKRPGMYIGSTGERGLHHLIWEVVDNAVDEAMAGFATRVDVKIHADGSVEVRDDGRGIPVEMHATGMPTIDVVMTQLHAGGKFDGETYAVSGGLHGVGVSVVNALSTRLEATVLRDGYEWFQYYDRSVPGKLKQGGETKETGTTIRFWADPEIFETTDYNFETVARRLQEMAFLNKGLTIELTDERVTAEEVVDDVVKDTAEAPKTADEKAAEATGPSKVKHRVFHYPGGLVDYVKHINRTKTPIQQSIIDFDGKGPGHEVEIAMQWNAGYSESVHTFANTINTHEGGTHEEGFRAALTSVVNRYAKDKKLLKDKDPNLTGDDIREGLAAVISVKVAEPQFEGQTKTKLGNTEVKSFVQKICNEQLQHWFEANPAEAKTVVNKAVSSAQARIAARKARELVRRKSATDIGGLPGKLADCRSTDPSKSELYVVEGDSAGGSAKSGRDSMFQAILPLRGKIINVEKARIDRVLKNTEVQSIITALGTGIHDEFDISKLRYHKIVLMADADVDGQHISTLLLTLLFRFMKPLVENGHIFLAQPPLYKLKWQRSEPEFAYSDRERDGLLEAGRAAGKKINVDDGIQRYKGLGEMDAKELWETTMDPSVRVLRQVTLDDAAAADELFSILMGEDVEARRSFITRNAKDVRFLDV

> <PDB ID(s) of Target Chain>
4BAE

> <UniProt (SwissProt) Recommended Name of Target Chain>
DNA gyrase subunit B

> <UniProt (SwissProt) Entry Name of Target Chain>
GYRB_MYCSM

> <UniProt (SwissProt) Primary ID of Target Chain>
P0C559

> <UniProt (SwissProt) Secondary ID(s) of Target Chain>
P48355,Q59555

> <UniProt (SwissProt) Alternative ID(s) of Target Chain>


> <UniProt (TrEMBL) Submitted Name of Target Chain>


> <UniProt (TrEMBL) Entry Name of Target Chain>


> <UniProt (TrEMBL) Primary ID of Target Chain>


> <UniProt (TrEMBL) Secondary ID(s) of Target Chain>


> <UniProt (TrEMBL) Alternative ID(s) of Target Chain>


$$$$

  SciTegic04201612532D

 32 35  0  0  0  0            999 V2000
   -1.2964    1.4973    0.0000 N   0  0
   -2.6111    0.7486    0.0000 C   0  0
   -2.6111   -0.7486    0.0000 C   0  0
   -1.2964   -1.4973    0.0000 C   0  0
    0.0000   -0.7486    0.0000 C   0  0
    1.2964   -1.4973    0.0000 C   0  0
    2.5929   -0.7486    0.0000 C   0  0
    2.5929    0.7486    0.0000 C   0  0
    1.2964    1.4973    0.0000 C   0  0
    0.0000    0.7486    0.0000 C   0  0
   -3.9122   -1.4966    0.0000 C   0  0
   -4.9506   -0.8952    0.0000 O   0  0
   -1.2907   -2.9981    0.0000 N   0  0
   -2.5870   -3.7544    0.0000 C   0  0
   -2.5835   -5.2544    0.0000 C   0  0
   -3.8807   -6.0076    0.0000 C   0  0
   -5.1815   -5.2608    0.0000 C   0  0
   -5.1852   -3.7608    0.0000 C   0  0
   -3.8880   -3.0076    0.0000 C   0  0
   -6.4810   -6.0117    0.0000 O   0  0
   -7.7815   -5.2626    0.0000 C   0  0
   -9.0810   -6.0135    0.0000 C   0  0
  -10.3815   -5.2644    0.0000 C   0  0
  -14.2755   -7.5217    0.0000 O   0  0
  -14.2791   -6.0217    0.0000 C   0  0
  -12.9819   -5.2686    0.0000 C   0  0
  -11.6810   -6.0154    0.0000 N   0  0
  -11.6774   -7.5154    0.0000 C   0  0
  -12.9746   -8.2686    0.0000 C   0  0
   -3.9138   -2.4966    0.0000 O   0  0
    3.8942   -1.4964    0.0000 O   0  0
    4.9326   -0.8949    0.0000 C   0  0
  1  2  2  0
  2  3  1  0
  3  4  2  0
  4  5  1  0
  5  6  2  0
  6  7  1  0
  7  8  2  0
  8  9  1  0
  9 10  2  0
  1 10  1  0
  5 10  1  0
 11 12  2  0
  3 11  1  0
 14 15  1  0
 15 16  2  0
 16 17  1  0
 17 18  2  0
 18 19  1  0
 14 19  2  0
 21 22  1  0
 22 23  1  0
 20 21  1  0
 24 25  1  0
 25 26  1  0
 26 27  1  0
 27 28  1  0
 28 29  1  0
 24 29  1  0
 23 27  1  0
 17 20  1  0
 13 14  1  0
  4 13  1  0
 11 30  1  0
 31 32  1  0
  7 31  1  0
M  END
> <From> 
www.bindingDB.org

> <BindingDB Reactant_set_id>
50426761

> <Ligand InChI>
InChI=1S/C24H27N3O5/c1-30-19-7-8-22-20(15-19)23(21(16-25-22)24(28)29)26-17-3-5-18(6-4-17)32-12-2-9-27-10-13-31-14-11-27/h3-8,15-16H,2,9-14H2,1H3,(H,25,26)(H,28,29)

> <Ligand InChI Key>
OMFICQJAXLCFDK-UHFFFAOYSA-N

> <BindingDB MonomerID>
50126388

> <BindingDB Ligand Name>
CHEMBL3628456

> <Target Name Assigned by Curator or DataSource>
DNA gyrase subunit B

> <Target Source Organism According to Curator or DataSource>


> <Ki (nM)>


> <IC50 (nM)>
 20560

> <Kd (nM)>


> <EC50 (nM)>


> <kon (M-1-s-1)>


> <koff (s-1)>


> <pH>


> <Temp C>


> <Curation/DataSource>
ChEMBL

> <Article DOI>
10.1016/j.ejmech.2015.06.032

> <PMID>
26318054

> <PubChem AID>


> <Patent Number>


> <Authors>
Medapi, B; Suryadevara, P; Renuka, J; Sridevi, JP; Yogeeswari, P; Sriram, D

> <Institution>
Birla Institute of Technology&amp;Science

> <Link to Ligand in BindingDB>
http://www.bindingdb.org/bind/chemsearch/marvin/MolStructure.jsp?monomerid=50126388

> <Link to Ligand-Target Pair in BindingDB>
http://www.bindingdb.org/jsp/dbsearch/PrimarySearch_ki.jsp?energyterm=kJ/mole&tag=pol&polymerid=50006452&target=DNA+gyrase+subunit+B&column=ki&startPg=0&Increment=50&submit=Search

> <Link to Ligand-Target Pair in BindingDB>
http://www.bindingdb.org/jsp/dbsearch/PrimarySearch_ki.jsp?energyterm=kJ/mole&tag=r21&monomerid=50126388&enzyme=DNA+gyrase+subunit+B&column=ki&startPg=0&Increment=50&submit=Search

> <Ligand HET ID in PDB>


> <PDB ID(s) for Ligand-Target Complex>


> <PubChem CID>
122193470

> <PubChem SID>
104018464

> <ChEBI ID of Ligand>


> <ChEMBL ID of Ligand>
CHEMBL31157

> <DrugBank ID of Ligand>


> <IUPHAR_GRAC ID of Ligand>


> <KEGG ID of Ligand>


> <ZINC ID of Ligand>
ZINC29213013

> <Number of Protein Chains in Target (>1 implies a multichain complex)>
1

> <BindingDB Target Chain Sequence>
MAAQKNNAPKEYGADSITILEGLEAVRKRPGMYIGSTGERGLHHLIWEVVDNAVDEAMAGFATRVDVKIHADGSVEVRDDGRGIPVEMHATGMPTIDVVMTQLHAGGKFDGETYAVSGGLHGVGVSVVNALSTRLEATVLRDGYEWFQYYDRSVPGKLKQGGETKETGTTIRFWADPEIFETTDYNFETVARRLQEMAFLNKGLTIELTDERVTAEEVVDDVVKDTAEAPKTADEKAAEATGPSKVKHRVFHYPGGLVDYVKHINRTKTPIQQSIIDFDGKGPGHEVEIAMQWNAGYSESVHTFANTINTHEGGTHEEGFRAALTSVVNRYAKDKKLLKDKDPNLTGDDIREGLAAVISVKVAEPQFEGQTKTKLGNTEVKSFVQKICNEQLQHWFEANPAEAKTVVNKAVSSAQARIAARKARELVRRKSATDIGGLPGKLADCRSTDPSKSELYVVEGDSAGGSAKSGRDSMFQAILPLRGKIINVEKARIDRVLKNTEVQSIITALGTGIHDEFDISKLRYHKIVLMADADVDGQHISTLLLTLLFRFMKPLVENGHIFLAQPPLYKLKWQRSEPEFAYSDRERDGLLEAGRAAGKKINVDDGIQRYKGLGEMDAKELWETTMDPSVRVLRQVTLDDAAAADELFSILMGEDVEARRSFITRNAKDVRFLDV

> <PDB ID(s) of Target Chain>
4BAE

> <UniProt (SwissProt) Recommended Name of Target Chain>
DNA gyrase subunit B

> <UniProt (SwissProt) Entry Name of Target Chain>
GYRB_MYCSM

> <UniProt (SwissProt) Primary ID of Target Chain>
P0C559

> <UniProt (SwissProt) Secondary ID(s) of Target Chain>
P48355,Q59555

> <UniProt (SwissProt) Alternative ID(s) of Target Chain>


> <UniProt (TrEMBL) Submitted Name of Target Chain>


> <UniProt (TrEMBL) Entry Name of Target Chain>


> <UniProt (TrEMBL) Primary ID of Target Chain>


> <UniProt (TrEMBL) Secondary ID(s) of Target Chain>


> <UniProt (TrEMBL) Alternative ID(s) of Target Chain>


$$$$

  Mrv0541 03201611132D          

 30 33  0  0  0  0            999 V2000
   13.8730  -10.0887    0.0000 O   0  0  0  0  0  0  0  0  0  0  0  0
   14.3577   -9.4233    0.0000 C   0  0  0  0  0  0  0  0  0  0  0  0
   13.8730   -8.7579    0.0000 C   0  0  0  0  0  0  0  0  0  0  0  0
   13.0883   -9.0108    0.0000 C   0  0  0  0  0  0  0  0  0  0  0  0
   13.0883   -9.8358    0.0000 C   0  0  0  0  0  0  0  0  0  0  0  0
   12.3766   -8.5983    0.0000 C   0  0  0  0  0  0  0  0  0  0  0  0
   11.6607   -9.0108    0.0000 C   0  0  0  0  0  0  0  0  0  0  0  0
   11.6607   -9.8358    0.0000 C   0  0  0  0  0  0  0  0  0  0  0  0
   12.3766  -10.2483    0.0000 C   0  0  0  0  0  0  0  0  0  0  0  0
   15.1826   -9.4233    0.0000 C   0  0  0  0  0  0  0  0  0  0  0  0
   15.5951  -10.1392    0.0000 O   0  0  0  0  0  0  0  0  0  0  0  0
   15.5951   -8.7074    0.0000 O   0  0  0  0  0  0  0  0  0  0  0  0
   10.9449   -8.5983    0.0000 N   0  0  0  0  0  0  0  0  0  0  0  0
   10.2291   -9.0108    0.0000 C   0  0  0  0  0  0  0  0  0  0  0  0
    9.5174   -8.5983    0.0000 C   0  0  0  0  0  0  0  0  0  0  0  0
    9.5174   -7.7733    0.0000 N   0  0  0  0  0  0  0  0  0  0  0  0
   10.2291   -7.3608    0.0000 C   0  0  0  0  0  0  0  0  0  0  0  0
   10.9449   -7.7733    0.0000 C   0  0  0  0  0  0  0  0  0  0  0  0
    8.8015   -7.3608    0.0000 C   0  0  0  0  0  0  0  0  0  0  0  0
    8.0898   -7.7733    0.0000 N   0  0  0  0  0  0  0  0  0  0  0  0
    8.8015   -6.5358    0.0000 O   0  0  0  0  0  0  0  0  0  0  0  0
    7.3739   -7.3608    0.0000 C   0  0  0  0  0  0  0  0  0  0  0  0
    6.6581   -7.7733    0.0000 C   0  0  0  0  0  0  0  0  0  0  0  0
    5.9464   -7.3608    0.0000 C   0  0  0  0  0  0  0  0  0  0  0  0
    5.9464   -6.5358    0.0000 C   0  0  0  0  0  0  0  0  0  0  0  0
    6.6581   -6.1233    0.0000 C   0  0  0  0  0  0  0  0  0  0  0  0
    7.3739   -6.5358    0.0000 C   0  0  0  0  0  0  0  0  0  0  0  0
    5.2306   -6.1233    0.0000 Cl  0  0  0  0  0  0  0  0  0  0  0  0
   16.4201   -8.7074    0.0000 C   0  0  0  0  0  0  0  0  0  0  0  0
   16.8326   -7.9957    0.0000 C   0  0  0  0  0  0  0  0  0  0  0  0
  1  2  4  0  0  0  0
  2  3  4  0  0  0  0
  3  4  4  0  0  0  0
  4  5  4  0  0  0  0
  1  5  4  0  0  0  0
  6  7  4  0  0  0  0
  7  8  4  0  0  0  0
  8  9  4  0  0  0  0
  5  9  4  0  0  0  0
  4  6  4  0  0  0  0
 10 11  2  0  0  0  0
 10 12  1  0  0  0  0
  2 10  1  0  0  0  0
 13 14  1  0  0  0  0
 14 15  1  0  0  0  0
 15 16  1  0  0  0  0
 16 17  1  0  0  0  0
 17 18  1  0  0  0  0
 13 18  1  0  0  0  0
 19 20  1  0  0  0  0
 19 21  2  0  0  0  0
 22 23  4  0  0  0  0
 23 24  4  0  0  0  0
 24 25  4  0  0  0  0
 25 26  4  0  0  0  0
 26 27  4  0  0  0  0
 22 27  4  0  0  0  0
 25 28  1  0  0  0  0
 20 22  1  0  0  0  0
 16 19  1  0  0  0  0
  7 13  1  0  0  0  0
 29 30  1  0  0  0  0
 12 29  1  0  0  0  0
M  END
> <From> 
www.bindingDB.org

> <BindingDB Reactant_set_id>
50254210

> <Ligand InChI>
InChI=1S/C22H22ClN3O4/c1-2-29-21(27)20-14-15-13-18(7-8-19(15)30-20)25-9-11-26(12-10-25)22(28)24-17-5-3-16(23)4-6-17/h3-8,13-14H,2,9-12H2,1H3,(H,24,28)

> <Ligand InChI Key>
AKAXPDXZJCXTKY-UHFFFAOYSA-N

> <BindingDB MonomerID>
50037192

> <BindingDB Ligand Name>
CHEMBL3355783

> <Target Name Assigned by Curator or DataSource>
DNA gyrase subunit B

> <Target Source Organism According to Curator or DataSource>


> <Ki (nM)>


> <IC50 (nM)>
 20670

> <Kd (nM)>


> <EC50 (nM)>


> <kon (M-1-s-1)>


> <koff (s-1)>


> <pH>


> <Temp C>


> <Curation/DataSource>
ChEMBL

> <Article DOI>
10.1016/j.bmc.2014.10.016

> <PMID>
25456076

> <PubChem AID>


> <Patent Number>


> <Authors>
Reddy, KI; Srihari, K; Renuka, J; Sree, KS; Chuppala, A; Jeankumar, VU; Sridevi, JP; Babu, KS; Yogeeswari, P; Sriram, D

> <Institution>
TBA

> <Link to Ligand in BindingDB>
http://www.bindingdb.org/bind/chemsearch/marvin/MolStructure.jsp?monomerid=50037192

> <Link to Ligand-Target Pair in BindingDB>
http://www.bindingdb.org/jsp/dbsearch/PrimarySearch_ki.jsp?energyterm=kJ/mole&tag=pol&polymerid=50006452&target=DNA+gyrase+subunit+B&column=ki&startPg=0&Increment=50&submit=Search

> <Link to Ligand-Target Pair in BindingDB>
http://www.bindingdb.org/jsp/dbsearch/PrimarySearch_ki.jsp?energyterm=kJ/mole&tag=r21&monomerid=50037192&enzyme=DNA+gyrase+subunit+B&column=ki&startPg=0&Increment=50&submit=Search

> <Ligand HET ID in PDB>


> <PDB ID(s) for Ligand-Target Complex>


> <PubChem CID>
118721083

> <PubChem SID>
313067069

> <ChEBI ID of Ligand>


> <ChEMBL ID of Ligand>


> <DrugBank ID of Ligand>


> <IUPHAR_GRAC ID of Ligand>


> <KEGG ID of Ligand>


> <ZINC ID of Ligand>


> <Number of Protein Chains in Target (>1 implies a multichain complex)>
1

> <BindingDB Target Chain Sequence>
MAAQKNNAPKEYGADSITILEGLEAVRKRPGMYIGSTGERGLHHLIWEVVDNAVDEAMAGFATRVDVKIHADGSVEVRDDGRGIPVEMHATGMPTIDVVMTQLHAGGKFDGETYAVSGGLHGVGVSVVNALSTRLEATVLRDGYEWFQYYDRSVPGKLKQGGETKETGTTIRFWADPEIFETTDYNFETVARRLQEMAFLNKGLTIELTDERVTAEEVVDDVVKDTAEAPKTADEKAAEATGPSKVKHRVFHYPGGLVDYVKHINRTKTPIQQSIIDFDGKGPGHEVEIAMQWNAGYSESVHTFANTINTHEGGTHEEGFRAALTSVVNRYAKDKKLLKDKDPNLTGDDIREGLAAVISVKVAEPQFEGQTKTKLGNTEVKSFVQKICNEQLQHWFEANPAEAKTVVNKAVSSAQARIAARKARELVRRKSATDIGGLPGKLADCRSTDPSKSELYVVEGDSAGGSAKSGRDSMFQAILPLRGKIINVEKARIDRVLKNTEVQSIITALGTGIHDEFDISKLRYHKIVLMADADVDGQHISTLLLTLLFRFMKPLVENGHIFLAQPPLYKLKWQRSEPEFAYSDRERDGLLEAGRAAGKKINVDDGIQRYKGLGEMDAKELWETTMDPSVRVLRQVTLDDAAAADELFSILMGEDVEARRSFITRNAKDVRFLDV

> <PDB ID(s) of Target Chain>
4BAE

> <UniProt (SwissProt) Recommended Name of Target Chain>
DNA gyrase subunit B

> <UniProt (SwissProt) Entry Name of Target Chain>
GYRB_MYCSM

> <UniProt (SwissProt) Primary ID of Target Chain>
P0C559

> <UniProt (SwissProt) Secondary ID(s) of Target Chain>
P48355,Q59555

> <UniProt (SwissProt) Alternative ID(s) of Target Chain>


> <UniProt (TrEMBL) Submitted Name of Target Chain>


> <UniProt (TrEMBL) Entry Name of Target Chain>


> <UniProt (TrEMBL) Primary ID of Target Chain>


> <UniProt (TrEMBL) Secondary ID(s) of Target Chain>


> <UniProt (TrEMBL) Alternative ID(s) of Target Chain>


$$$$

  SciTegic04201612532D

 32 35  0  0  0  0            999 V2000
   -1.2964    1.4973    0.0000 N   0  0
   -2.6111    0.7486    0.0000 C   0  0
   -2.6111   -0.7486    0.0000 C   0  0
   -1.2964   -1.4973    0.0000 C   0  0
    0.0000   -0.7486    0.0000 C   0  0
    1.2964   -1.4973    0.0000 C   0  0
    2.5929   -0.7486    0.0000 C   0  0
    2.5929    0.7486    0.0000 C   0  0
    1.2964    1.4973    0.0000 C   0  0
    0.0000    0.7486    0.0000 C   0  0
   -3.9122   -1.4966    0.0000 C   0  0
   -3.9138   -2.4966    0.0000 O   0  0
   -5.2109   -0.7445    0.0000 N   0  0
   -1.2907   -2.9981    0.0000 N   0  0
   -2.5870   -3.7544    0.0000 C   0  0
   -2.5835   -5.2544    0.0000 C   0  0
   -3.8807   -6.0076    0.0000 C   0  0
   -5.1815   -5.2608    0.0000 C   0  0
   -5.1852   -3.7608    0.0000 C   0  0
   -3.8880   -3.0076    0.0000 C   0  0
   -6.4810   -6.0117    0.0000 O   0  0
   -7.7815   -5.2626    0.0000 C   0  0
   -9.0810   -6.0135    0.0000 C   0  0
  -10.3815   -5.2644    0.0000 C   0  0
  -14.2755   -7.5217    0.0000 O   0  0
  -14.2791   -6.0217    0.0000 C   0  0
  -12.9819   -5.2686    0.0000 C   0  0
  -11.6810   -6.0154    0.0000 N   0  0
  -11.6774   -7.5154    0.0000 C   0  0
  -12.9746   -8.2686    0.0000 C   0  0
   -6.2513   -1.3425    0.0000 N   0  0
    3.6321   -1.3486    0.0000 F   0  0
  1  2  2  0
  2  3  1  0
  3  4  2  0
  4  5  1  0
  5  6  2  0
  6  7  1  0
  7  8  2  0
  8  9  1  0
  9 10  2  0
  1 10  1  0
  5 10  1  0
 11 12  2  0
 11 13  1  0
  3 11  1  0
 15 16  1  0
 16 17  2  0
 17 18  1  0
 18 19  2  0
 19 20  1  0
 15 20  2  0
 22 23  1  0
 23 24  1  0
 21 22  1  0
 25 26  1  0
 26 27  1  0
 27 28  1  0
 28 29  1  0
 29 30  1  0
 25 30  1  0
 24 28  1  0
 18 21  1  0
 14 15  1  0
  4 14  1  0
 13 31  1  0
  7 32  1  0
M  END
> <From> 
www.bindingDB.org

> <BindingDB Reactant_set_id>
50426776

> <Ligand InChI>
InChI=1S/C23H26FN5O3/c24-16-2-7-21-19(14-16)22(20(15-26-21)23(30)28-25)27-17-3-5-18(6-4-17)32-11-1-8-29-9-12-31-13-10-29/h2-7,14-15H,1,8-13,25H2,(H,26,27)(H,28,30)

> <Ligand InChI Key>
WHFWJPYCJWUIPQ-UHFFFAOYSA-N

> <BindingDB MonomerID>
50126795

> <BindingDB Ligand Name>
CHEMBL3628442

> <Target Name Assigned by Curator or DataSource>
DNA gyrase subunit B

> <Target Source Organism According to Curator or DataSource>


> <Ki (nM)>


> <IC50 (nM)>
 20880

> <Kd (nM)>


> <EC50 (nM)>


> <kon (M-1-s-1)>


> <koff (s-1)>


> <pH>


> <Temp C>


> <Curation/DataSource>
ChEMBL

> <Article DOI>
10.1016/j.ejmech.2015.06.032

> <PMID>
26318054

> <PubChem AID>


> <Patent Number>


> <Authors>
Medapi, B; Suryadevara, P; Renuka, J; Sridevi, JP; Yogeeswari, P; Sriram, D

> <Institution>
Birla Institute of Technology&amp;Science

> <Link to Ligand in BindingDB>
http://www.bindingdb.org/bind/chemsearch/marvin/MolStructure.jsp?monomerid=50126795

> <Link to Ligand-Target Pair in BindingDB>
http://www.bindingdb.org/jsp/dbsearch/PrimarySearch_ki.jsp?energyterm=kJ/mole&tag=pol&polymerid=50006452&target=DNA+gyrase+subunit+B&column=ki&startPg=0&Increment=50&submit=Search

> <Link to Ligand-Target Pair in BindingDB>
http://www.bindingdb.org/jsp/dbsearch/PrimarySearch_ki.jsp?energyterm=kJ/mole&tag=r21&monomerid=50126795&enzyme=DNA+gyrase+subunit+B&column=ki&startPg=0&Increment=50&submit=Search

> <Ligand HET ID in PDB>


> <PDB ID(s) for Ligand-Target Complex>


> <PubChem CID>
122193455

> <PubChem SID>
321902397

> <ChEBI ID of Ligand>


> <ChEMBL ID of Ligand>


> <DrugBank ID of Ligand>


> <IUPHAR_GRAC ID of Ligand>


> <KEGG ID of Ligand>


> <ZINC ID of Ligand>


> <Number of Protein Chains in Target (>1 implies a multichain complex)>
1

> <BindingDB Target Chain Sequence>
MAAQKNNAPKEYGADSITILEGLEAVRKRPGMYIGSTGERGLHHLIWEVVDNAVDEAMAGFATRVDVKIHADGSVEVRDDGRGIPVEMHATGMPTIDVVMTQLHAGGKFDGETYAVSGGLHGVGVSVVNALSTRLEATVLRDGYEWFQYYDRSVPGKLKQGGETKETGTTIRFWADPEIFETTDYNFETVARRLQEMAFLNKGLTIELTDERVTAEEVVDDVVKDTAEAPKTADEKAAEATGPSKVKHRVFHYPGGLVDYVKHINRTKTPIQQSIIDFDGKGPGHEVEIAMQWNAGYSESVHTFANTINTHEGGTHEEGFRAALTSVVNRYAKDKKLLKDKDPNLTGDDIREGLAAVISVKVAEPQFEGQTKTKLGNTEVKSFVQKICNEQLQHWFEANPAEAKTVVNKAVSSAQARIAARKARELVRRKSATDIGGLPGKLADCRSTDPSKSELYVVEGDSAGGSAKSGRDSMFQAILPLRGKIINVEKARIDRVLKNTEVQSIITALGTGIHDEFDISKLRYHKIVLMADADVDGQHISTLLLTLLFRFMKPLVENGHIFLAQPPLYKLKWQRSEPEFAYSDRERDGLLEAGRAAGKKINVDDGIQRYKGLGEMDAKELWETTMDPSVRVLRQVTLDDAAAADELFSILMGEDVEARRSFITRNAKDVRFLDV

> <PDB ID(s) of Target Chain>
4BAE

> <UniProt (SwissProt) Recommended Name of Target Chain>
DNA gyrase subunit B

> <UniProt (SwissProt) Entry Name of Target Chain>
GYRB_MYCSM

> <UniProt (SwissProt) Primary ID of Target Chain>
P0C559

> <UniProt (SwissProt) Secondary ID(s) of Target Chain>
P48355,Q59555

> <UniProt (SwissProt) Alternative ID(s) of Target Chain>


> <UniProt (TrEMBL) Submitted Name of Target Chain>


> <UniProt (TrEMBL) Entry Name of Target Chain>


> <UniProt (TrEMBL) Primary ID of Target Chain>


> <UniProt (TrEMBL) Secondary ID(s) of Target Chain>


> <UniProt (TrEMBL) Alternative ID(s) of Target Chain>


$$$$

  SciTegic12221703492D

 28 31  0  0  0  0            999 V2000
   21.4177   -4.9933    0.0000 N   0  0
   20.7043   -5.3912    0.0000 C   0  0
   20.6914   -6.2083    0.0000 C   0  0
   21.3960   -6.6275    0.0000 N   0  0
   22.1094   -6.2296    0.0000 C   0  0
   22.1182   -5.4125    0.0000 C   0  0
   21.4265   -4.1763    0.0000 C   0  0
   22.1399   -3.7784    0.0000 N   0  0
   20.7261   -3.7571    0.0000 O   0  0
   22.1529   -2.9613    0.0000 C   0  0
   22.8663   -2.5593    0.0000 C   0  0
   22.8792   -1.7422    0.0000 C   0  0
   22.1746   -1.3272    0.0000 C   0  0
   21.4612   -1.7250    0.0000 C   0  0
   21.4524   -2.5421    0.0000 C   0  0
   21.3613   -9.0787    0.0000 N   0  0
   22.0747   -8.6808    0.0000 C   0  0
   22.0835   -7.8637    0.0000 C   0  0
   21.3830   -7.4446    0.0000 C   0  0
   20.6696   -7.8424    0.0000 C   0  0
   19.9692   -7.4232    0.0000 C   0  0
   19.2558   -7.8211    0.0000 C   0  0
   19.2428   -8.6423    0.0000 C   0  0
   19.9433   -9.0574    0.0000 C   0  0
   20.6608   -8.6595    0.0000 C   0  0
   18.5295   -9.0402    0.0000 Cl  0  0
   22.1857   -0.5086    0.0000 O   0  0
   21.4828   -0.0917    0.0000 C   0  0
  1  2  1  0
  2  3  1  0
  3  4  1  0
  4  5  1  0
  5  6  1  0
  1  6  1  0
  7  8  1  0
  7  9  2  0
  1  7  1  0
 10 11  1  0
 11 12  2  0
 12 13  1  0
 13 14  2  0
 14 15  1  0
 10 15  2  0
  8 10  1  0
 16 17  2  0
 17 18  1  0
 18 19  2  0
 19 20  1  0
 20 21  2  0
 21 22  1  0
 22 23  2  0
 23 24  1  0
 24 25  2  0
 16 25  1  0
 20 25  1  0
 23 26  1  0
  4 19  1  0
 27 28  1  0
 13 27  1  0
M  END
> <From> 
www.bindingDB.org

> <BindingDB Reactant_set_id>
50528083

> <Ligand InChI>
InChI=1S/C21H21ClN4O2/c1-28-17-5-3-16(4-6-17)24-21(27)26-12-10-25(11-13-26)20-8-9-23-19-14-15(22)2-7-18(19)20/h2-9,14H,10-13H2,1H3,(H,24,27)

> <Ligand InChI Key>
SOJIKBIURBRJFR-UHFFFAOYSA-N

> <BindingDB MonomerID>
50202227

> <BindingDB Ligand Name>
CHEMBL3943969

> <Target Name Assigned by Curator or DataSource>
DNA gyrase subunit B

> <Target Source Organism According to Curator or DataSource>


> <Ki (nM)>


> <IC50 (nM)>
 21100

> <Kd (nM)>


> <EC50 (nM)>


> <kon (M-1-s-1)>


> <koff (s-1)>


> <pH>


> <Temp C>


> <Curation/DataSource>
ChEMBL

> <Article DOI>
10.1016/j.ejmech.2016.06.042

> <PMID>
27371925

> <PubChem AID>


> <Patent Number>


> <Authors>
Jeankumar, VU; Reshma, RS; Vats, R; Janupally, R; Saxena, S; Yogeeswari, P; Sriram, D

> <Institution>
Birla Institute of Technology&amp; Science-Pilani

> <Link to Ligand in BindingDB>
http://www.bindingdb.org/bind/chemsearch/marvin/MolStructure.jsp?monomerid=50202227

> <Link to Ligand-Target Pair in BindingDB>
http://www.bindingdb.org/jsp/dbsearch/PrimarySearch_ki.jsp?energyterm=kJ/mole&tag=pol&polymerid=50006452&target=DNA+gyrase+subunit+B&column=ki&startPg=0&Increment=50&submit=Search

> <Link to Ligand-Target Pair in BindingDB>
http://www.bindingdb.org/jsp/dbsearch/PrimarySearch_ki.jsp?energyterm=kJ/mole&tag=r21&monomerid=50202227&enzyme=DNA+gyrase+subunit+B&column=ki&startPg=0&Increment=50&submit=Search

> <Ligand HET ID in PDB>


> <PDB ID(s) for Ligand-Target Complex>


> <PubChem CID>
21101795

> <PubChem SID>
375979595

> <ChEBI ID of Ligand>


> <ChEMBL ID of Ligand>


> <DrugBank ID of Ligand>


> <IUPHAR_GRAC ID of Ligand>


> <KEGG ID of Ligand>


> <ZINC ID of Ligand>


> <Number of Protein Chains in Target (>1 implies a multichain complex)>
1

> <BindingDB Target Chain Sequence>
MAAQKNNAPKEYGADSITILEGLEAVRKRPGMYIGSTGERGLHHLIWEVVDNAVDEAMAGFATRVDVKIHADGSVEVRDDGRGIPVEMHATGMPTIDVVMTQLHAGGKFDGETYAVSGGLHGVGVSVVNALSTRLEATVLRDGYEWFQYYDRSVPGKLKQGGETKETGTTIRFWADPEIFETTDYNFETVARRLQEMAFLNKGLTIELTDERVTAEEVVDDVVKDTAEAPKTADEKAAEATGPSKVKHRVFHYPGGLVDYVKHINRTKTPIQQSIIDFDGKGPGHEVEIAMQWNAGYSESVHTFANTINTHEGGTHEEGFRAALTSVVNRYAKDKKLLKDKDPNLTGDDIREGLAAVISVKVAEPQFEGQTKTKLGNTEVKSFVQKICNEQLQHWFEANPAEAKTVVNKAVSSAQARIAARKARELVRRKSATDIGGLPGKLADCRSTDPSKSELYVVEGDSAGGSAKSGRDSMFQAILPLRGKIINVEKARIDRVLKNTEVQSIITALGTGIHDEFDISKLRYHKIVLMADADVDGQHISTLLLTLLFRFMKPLVENGHIFLAQPPLYKLKWQRSEPEFAYSDRERDGLLEAGRAAGKKINVDDGIQRYKGLGEMDAKELWETTMDPSVRVLRQVTLDDAAAADELFSILMGEDVEARRSFITRNAKDVRFLDV

> <PDB ID(s) of Target Chain>
4BAE

> <UniProt (SwissProt) Recommended Name of Target Chain>
DNA gyrase subunit B

> <UniProt (SwissProt) Entry Name of Target Chain>
GYRB_MYCSM

> <UniProt (SwissProt) Primary ID of Target Chain>
P0C559

> <UniProt (SwissProt) Secondary ID(s) of Target Chain>
P48355,Q59555

> <UniProt (SwissProt) Alternative ID(s) of Target Chain>


> <UniProt (TrEMBL) Submitted Name of Target Chain>


> <UniProt (TrEMBL) Entry Name of Target Chain>


> <UniProt (TrEMBL) Primary ID of Target Chain>


> <UniProt (TrEMBL) Secondary ID(s) of Target Chain>


> <UniProt (TrEMBL) Alternative ID(s) of Target Chain>


$$$$

  SciTegic04201612532D

 32 35  0  0  0  0            999 V2000
   -1.2964    1.4973    0.0000 N   0  0
   -2.6111    0.7486    0.0000 C   0  0
   -2.6111   -0.7486    0.0000 C   0  0
   -1.2964   -1.4973    0.0000 C   0  0
    0.0000   -0.7486    0.0000 C   0  0
    1.2964   -1.4973    0.0000 C   0  0
    2.5929   -0.7486    0.0000 C   0  0
    2.5929    0.7486    0.0000 C   0  0
    1.2964    1.4973    0.0000 C   0  0
    0.0000    0.7486    0.0000 C   0  0
   -3.9122   -1.4966    0.0000 C   0  0
   -4.9506   -0.8952    0.0000 O   0  0
   -1.2907   -2.9981    0.0000 N   0  0
   -2.5870   -3.7544    0.0000 C   0  0
   -2.5835   -5.2544    0.0000 C   0  0
   -3.8807   -6.0076    0.0000 C   0  0
   -5.1815   -5.2608    0.0000 C   0  0
   -5.1852   -3.7608    0.0000 C   0  0
   -3.8880   -3.0076    0.0000 C   0  0
   -6.4810   -6.0117    0.0000 O   0  0
   -7.7815   -5.2626    0.0000 C   0  0
   -9.0810   -6.0135    0.0000 C   0  0
  -10.3815   -5.2644    0.0000 C   0  0
  -14.2755   -7.5217    0.0000 N   0  0
  -14.2791   -6.0217    0.0000 C   0  0
  -12.9819   -5.2686    0.0000 C   0  0
  -11.6810   -6.0154    0.0000 N   0  0
  -11.6774   -7.5154    0.0000 C   0  0
  -12.9746   -8.2686    0.0000 C   0  0
   -3.9138   -2.4966    0.0000 O   0  0
  -15.5719   -8.2779    0.0000 C   0  0
  -15.5672   -9.4779    0.0000 C   0  0
  1  2  2  0
  2  3  1  0
  3  4  2  0
  4  5  1  0
  5  6  2  0
  6  7  1  0
  7  8  2  0
  8  9  1  0
  9 10  2  0
  1 10  1  0
  5 10  1  0
 11 12  2  0
  3 11  1  0
 14 15  1  0
 15 16  2  0
 16 17  1  0
 17 18  2  0
 18 19  1  0
 14 19  2  0
 21 22  1  0
 22 23  1  0
 20 21  1  0
 24 25  1  0
 25 26  1  0
 26 27  1  0
 27 28  1  0
 28 29  1  0
 24 29  1  0
 23 27  1  0
 17 20  1  0
 13 14  1  0
  4 13  1  0
 11 30  1  0
 24 31  1  0
 31 32  1  0
M  END
> <From> 
www.bindingDB.org

> <BindingDB Reactant_set_id>
50426796

> <Ligand InChI>
InChI=1S/C25H30N4O3/c1-2-28-13-15-29(16-14-28)12-5-17-32-20-10-8-19(9-11-20)27-24-21-6-3-4-7-23(21)26-18-22(24)25(30)31/h3-4,6-11,18H,2,5,12-17H2,1H3,(H,26,27)(H,30,31)

> <Ligand InChI Key>
FSPXQXFCDSPPRX-UHFFFAOYSA-N

> <BindingDB MonomerID>
50126843

> <BindingDB Ligand Name>
CHEMBL3628522

> <Target Name Assigned by Curator or DataSource>
DNA gyrase subunit B

> <Target Source Organism According to Curator or DataSource>


> <Ki (nM)>


> <IC50 (nM)>
 21660

> <Kd (nM)>


> <EC50 (nM)>


> <kon (M-1-s-1)>


> <koff (s-1)>


> <pH>


> <Temp C>


> <Curation/DataSource>
ChEMBL

> <Article DOI>
10.1016/j.ejmech.2015.06.032

> <PMID>
26318054

> <PubChem AID>


> <Patent Number>


> <Authors>
Medapi, B; Suryadevara, P; Renuka, J; Sridevi, JP; Yogeeswari, P; Sriram, D

> <Institution>
Birla Institute of Technology&amp;Science

> <Link to Ligand in BindingDB>
http://www.bindingdb.org/bind/chemsearch/marvin/MolStructure.jsp?monomerid=50126843

> <Link to Ligand-Target Pair in BindingDB>
http://www.bindingdb.org/jsp/dbsearch/PrimarySearch_ki.jsp?energyterm=kJ/mole&tag=pol&polymerid=50006452&target=DNA+gyrase+subunit+B&column=ki&startPg=0&Increment=50&submit=Search

> <Link to Ligand-Target Pair in BindingDB>
http://www.bindingdb.org/jsp/dbsearch/PrimarySearch_ki.jsp?energyterm=kJ/mole&tag=r21&monomerid=50126843&enzyme=DNA+gyrase+subunit+B&column=ki&startPg=0&Increment=50&submit=Search

> <Ligand HET ID in PDB>


> <PDB ID(s) for Ligand-Target Complex>


> <PubChem CID>
122193523

> <PubChem SID>
104018911

> <ChEBI ID of Ligand>


> <ChEMBL ID of Ligand>


> <DrugBank ID of Ligand>


> <IUPHAR_GRAC ID of Ligand>


> <KEGG ID of Ligand>


> <ZINC ID of Ligand>
ZINC29319453

> <Number of Protein Chains in Target (>1 implies a multichain complex)>
1

> <BindingDB Target Chain Sequence>
MAAQKNNAPKEYGADSITILEGLEAVRKRPGMYIGSTGERGLHHLIWEVVDNAVDEAMAGFATRVDVKIHADGSVEVRDDGRGIPVEMHATGMPTIDVVMTQLHAGGKFDGETYAVSGGLHGVGVSVVNALSTRLEATVLRDGYEWFQYYDRSVPGKLKQGGETKETGTTIRFWADPEIFETTDYNFETVARRLQEMAFLNKGLTIELTDERVTAEEVVDDVVKDTAEAPKTADEKAAEATGPSKVKHRVFHYPGGLVDYVKHINRTKTPIQQSIIDFDGKGPGHEVEIAMQWNAGYSESVHTFANTINTHEGGTHEEGFRAALTSVVNRYAKDKKLLKDKDPNLTGDDIREGLAAVISVKVAEPQFEGQTKTKLGNTEVKSFVQKICNEQLQHWFEANPAEAKTVVNKAVSSAQARIAARKARELVRRKSATDIGGLPGKLADCRSTDPSKSELYVVEGDSAGGSAKSGRDSMFQAILPLRGKIINVEKARIDRVLKNTEVQSIITALGTGIHDEFDISKLRYHKIVLMADADVDGQHISTLLLTLLFRFMKPLVENGHIFLAQPPLYKLKWQRSEPEFAYSDRERDGLLEAGRAAGKKINVDDGIQRYKGLGEMDAKELWETTMDPSVRVLRQVTLDDAAAADELFSILMGEDVEARRSFITRNAKDVRFLDV

> <PDB ID(s) of Target Chain>
4BAE

> <UniProt (SwissProt) Recommended Name of Target Chain>
DNA gyrase subunit B

> <UniProt (SwissProt) Entry Name of Target Chain>
GYRB_MYCSM

> <UniProt (SwissProt) Primary ID of Target Chain>
P0C559

> <UniProt (SwissProt) Secondary ID(s) of Target Chain>
P48355,Q59555

> <UniProt (SwissProt) Alternative ID(s) of Target Chain>


> <UniProt (TrEMBL) Submitted Name of Target Chain>


> <UniProt (TrEMBL) Entry Name of Target Chain>


> <UniProt (TrEMBL) Primary ID of Target Chain>


> <UniProt (TrEMBL) Secondary ID(s) of Target Chain>


> <UniProt (TrEMBL) Alternative ID(s) of Target Chain>


$$$$

  SciTegic10231716192D

 29 32  0  0  0  0            999 V2000
    3.0610  -18.3537    0.0000 C   0  0
    3.0598  -19.1733    0.0000 C   0  0
    3.7679  -19.5822    0.0000 C   0  0
    3.7661  -17.9449    0.0000 C   0  0
    4.4747  -18.3501    0.0000 C   0  0
    4.4795  -19.1733    0.0000 C   0  0
    5.2639  -19.4231    0.0000 N   0  0
    5.7439  -18.7543    0.0000 C   0  0
    5.2561  -18.0913    0.0000 C   0  0
    5.5041  -17.3126    0.0000 O   0  0
    6.5611  -18.7495    0.0000 O   0  0
    5.5210  -20.1988    0.0000 C   0  0
    4.9777  -20.8093    0.0000 C   0  0
    5.2348  -21.5850    0.0000 N   0  0
    4.6943  -22.1938    0.0000 C   0  0
    4.9484  -22.9667    0.0000 C   0  0
    5.7482  -23.1362    0.0000 N   0  0
    6.2936  -22.5263    0.0000 C   0  0
    6.0391  -21.7470    0.0000 C   0  0
    6.0023  -23.9129    0.0000 N   0  0
    6.8020  -24.0811    0.0000 C   0  0
    7.3476  -23.4727    0.0000 C   0  0
    8.1463  -23.6447    0.0000 C   0  0
    8.6916  -23.0371    0.0000 C   0  0
    8.4377  -22.2595    0.0000 C   0  0
    7.6333  -22.0929    0.0000 C   0  0
    7.0915  -22.7018    0.0000 C   0  0
    8.3985  -24.4221    0.0000 Cl  0  0
    9.4912  -23.2058    0.0000 Cl  0  0
  1  2  2  0
  2  3  1  0
  3  6  2  0
  5  4  2  0
  4  1  1  0
  5  6  1  0
  6  7  1  0
  7  8  1  0
  8  9  1  0
  9  5  1  0
  9 10  2  0
  8 11  2  0
  7 12  1  0
 12 13  1  0
 13 14  1  0
 14 15  1  0
 14 19  1  0
 15 16  1  0
 16 17  1  0
 17 18  1  0
 18 19  1  0
 17 20  1  0
 20 21  1  0
 21 22  1  0
 22 23  2  0
 23 24  1  0
 24 25  2  0
 25 26  1  0
 26 27  2  0
 27 22  1  0
 23 28  1  0
 24 29  1  0
M  END
> <From> 
www.bindingDB.org

> <BindingDB Reactant_set_id>
50543807

> <Ligand InChI>
InChI=1S/C21H22Cl2N4O2/c22-17-6-3-4-15(19(17)23)14-24-26-11-8-25(9-12-26)10-13-27-18-7-2-1-5-16(18)20(28)21(27)29/h1-7,24H,8-14H2

> <Ligand InChI Key>
INHJXPPAJYUVLB-UHFFFAOYSA-N

> <BindingDB MonomerID>
50208274

> <BindingDB Ligand Name>
CHEMBL3884677

> <Target Name Assigned by Curator or DataSource>
DNA gyrase subunit B

> <Target Source Organism According to Curator or DataSource>


> <Ki (nM)>


> <IC50 (nM)>
 21690

> <Kd (nM)>


> <EC50 (nM)>


> <kon (M-1-s-1)>


> <koff (s-1)>


> <pH>


> <Temp C>


> <Curation/DataSource>
ChEMBL

> <Article DOI>
10.1016/j.ejmech.2016.08.034

> <PMID>
27569197

> <PubChem AID>


> <Patent Number>


> <Authors>
Chaudhari, K; Surana, S; Jain, P; Patel, HM

> <Institution>
R. C. Patel Institute of Pharmaceutical Education and Research

> <Link to Ligand in BindingDB>
http://www.bindingdb.org/bind/chemsearch/marvin/MolStructure.jsp?monomerid=50208274

> <Link to Ligand-Target Pair in BindingDB>
http://www.bindingdb.org/jsp/dbsearch/PrimarySearch_ki.jsp?energyterm=kJ/mole&tag=pol&polymerid=50006452&target=DNA+gyrase+subunit+B&column=ki&startPg=0&Increment=50&submit=Search

> <Link to Ligand-Target Pair in BindingDB>
http://www.bindingdb.org/jsp/dbsearch/PrimarySearch_ki.jsp?energyterm=kJ/mole&tag=r21&monomerid=50208274&enzyme=DNA+gyrase+subunit+B&column=ki&startPg=0&Increment=50&submit=Search

> <Ligand HET ID in PDB>


> <PDB ID(s) for Ligand-Target Complex>


> <PubChem CID>
134130770

> <PubChem SID>
375981967

> <ChEBI ID of Ligand>


> <ChEMBL ID of Ligand>


> <DrugBank ID of Ligand>


> <IUPHAR_GRAC ID of Ligand>


> <KEGG ID of Ligand>


> <ZINC ID of Ligand>


> <Number of Protein Chains in Target (>1 implies a multichain complex)>
1

> <BindingDB Target Chain Sequence>
MAAQKNNAPKEYGADSITILEGLEAVRKRPGMYIGSTGERGLHHLIWEVVDNAVDEAMAGFATRVDVKIHADGSVEVRDDGRGIPVEMHATGMPTIDVVMTQLHAGGKFDGETYAVSGGLHGVGVSVVNALSTRLEATVLRDGYEWFQYYDRSVPGKLKQGGETKETGTTIRFWADPEIFETTDYNFETVARRLQEMAFLNKGLTIELTDERVTAEEVVDDVVKDTAEAPKTADEKAAEATGPSKVKHRVFHYPGGLVDYVKHINRTKTPIQQSIIDFDGKGPGHEVEIAMQWNAGYSESVHTFANTINTHEGGTHEEGFRAALTSVVNRYAKDKKLLKDKDPNLTGDDIREGLAAVISVKVAEPQFEGQTKTKLGNTEVKSFVQKICNEQLQHWFEANPAEAKTVVNKAVSSAQARIAARKARELVRRKSATDIGGLPGKLADCRSTDPSKSELYVVEGDSAGGSAKSGRDSMFQAILPLRGKIINVEKARIDRVLKNTEVQSIITALGTGIHDEFDISKLRYHKIVLMADADVDGQHISTLLLTLLFRFMKPLVENGHIFLAQPPLYKLKWQRSEPEFAYSDRERDGLLEAGRAAGKKINVDDGIQRYKGLGEMDAKELWETTMDPSVRVLRQVTLDDAAAADELFSILMGEDVEARRSFITRNAKDVRFLDV

> <PDB ID(s) of Target Chain>
4BAE

> <UniProt (SwissProt) Recommended Name of Target Chain>
DNA gyrase subunit B

> <UniProt (SwissProt) Entry Name of Target Chain>
GYRB_MYCSM

> <UniProt (SwissProt) Primary ID of Target Chain>
P0C559

> <UniProt (SwissProt) Secondary ID(s) of Target Chain>
P48355,Q59555

> <UniProt (SwissProt) Alternative ID(s) of Target Chain>


> <UniProt (TrEMBL) Submitted Name of Target Chain>


> <UniProt (TrEMBL) Entry Name of Target Chain>


> <UniProt (TrEMBL) Primary ID of Target Chain>


> <UniProt (TrEMBL) Secondary ID(s) of Target Chain>


> <UniProt (TrEMBL) Alternative ID(s) of Target Chain>


$$$$

  Mrv0541 04171609262D          

 26 29  0  0  0  0            999 V2000
    6.8356    0.2896    0.0000 C   0  0  0  0  0  0  0  0  0  0  0  0
    6.8020    1.1139    0.0000 C   0  0  0  0  0  0  0  0  0  0  0  0
    6.0713    1.4969    0.0000 C   0  0  0  0  0  0  0  0  0  0  0  0
    5.3742    1.0556    0.0000 C   0  0  0  0  0  0  0  0  0  0  0  0
    5.4082    0.2341    0.0000 C   0  0  0  0  0  0  0  0  0  0  0  0
    6.1385   -0.1517    0.0000 C   0  0  0  0  0  0  0  0  0  0  0  0
    4.7460   -0.2587    0.0000 C   0  0  0  0  0  0  0  0  0  0  0  0
    3.9585   -0.0127    0.0000 S   0  0  0  0  0  0  0  0  0  0  0  0
    3.4932   -0.6854    0.0000 C   0  0  0  0  0  0  0  0  0  0  0  0
    3.9737   -1.3474    0.0000 C   0  0  0  0  0  0  0  0  0  0  0  0
    4.7554   -1.0836    0.0000 C   0  0  0  0  0  0  0  0  0  0  0  0
    3.7236   -2.1326    0.0000 C   0  0  0  0  0  0  0  0  0  0  0  0
    4.1677   -2.6208    0.0000 O   0  0  0  0  0  0  0  0  0  0  0  0
    3.0787   -2.2733    0.0000 N   0  0  0  0  0  0  0  0  0  0  0  0
    2.6678   -0.6931    0.0000 N   0  0  0  0  0  0  0  0  0  0  0  0
    2.2480    0.0176    0.0000 C   0  0  0  0  0  0  0  0  0  0  0  0
    1.4239    0.0100    0.0000 C   0  0  0  0  0  0  0  0  0  0  0  0
    2.5725    0.5924    0.0000 O   0  0  0  0  0  0  0  0  0  0  0  0
    0.9426    0.6618    0.0000 N   0  0  0  0  0  0  0  0  0  0  0  0
    0.9426   -0.6618    0.0000 C   0  0  0  0  0  0  0  0  0  0  0  0
    0.1604   -0.4111    0.0000 C   0  0  0  0  0  0  0  0  0  0  0  0
    0.1604    0.4111    0.0000 C   0  0  0  0  0  0  0  0  0  0  0  0
   -0.5515    0.8323    0.0000 C   0  0  0  0  0  0  0  0  0  0  0  0
   -1.2735    0.4111    0.0000 C   0  0  0  0  0  0  0  0  0  0  0  0
   -1.2735   -0.4111    0.0000 C   0  0  0  0  0  0  0  0  0  0  0  0
   -0.5515   -0.8323    0.0000 C   0  0  0  0  0  0  0  0  0  0  0  0
  1  2  4  0  0  0  0
  2  3  4  0  0  0  0
  3  4  4  0  0  0  0
  4  5  4  0  0  0  0
  5  6  4  0  0  0  0
  6  1  4  0  0  0  0
  7  8  4  0  0  0  0
  8  9  4  0  0  0  0
  9 10  4  0  0  0  0
 10 11  4  0  0  0  0
 11  7  4  0  0  0  0
  5  7  1  0  0  0  0
 10 12  1  0  0  0  0
 12 13  2  0  0  0  0
 12 14  1  0  0  0  0
  9 15  1  0  0  0  0
 15 16  1  0  0  0  0
 16 17  1  0  0  0  0
 16 18  2  0  0  0  0
 17 19  4  0  0  0  0
 19 22  4  0  0  0  0
 21 20  4  0  0  0  0
 20 17  4  0  0  0  0
 21 22  4  0  0  0  0
 22 23  4  0  0  0  0
 23 24  4  0  0  0  0
 24 25  4  0  0  0  0
 25 26  4  0  0  0  0
 26 21  4  0  0  0  0
M  STY  1   1 DAT
M  SAL   1  1  19
M  SDT   1 MRV_IMPLICIT_H                                        
M  SDD   1     0.0000    0.0000    DR    ALL  0       0  
M  SED   1 IMPL_H1
M  END
> <From> 
www.bindingDB.org

> <BindingDB Reactant_set_id>
50302342

> <Ligand InChI>
InChI=1S/C20H15N3O2S/c21-18(24)14-11-17(12-6-2-1-3-7-12)26-20(14)23-19(25)16-10-13-8-4-5-9-15(13)22-16/h1-11,22H,(H2,21,24)(H,23,25)

> <Ligand InChI Key>
HSVPBOYFJAAXAJ-UHFFFAOYSA-N

> <BindingDB MonomerID>
50066105

> <BindingDB Ligand Name>
CHEMBL3402949

> <Target Name Assigned by Curator or DataSource>
DNA gyrase subunit B

> <Target Source Organism According to Curator or DataSource>


> <Ki (nM)>


> <IC50 (nM)>
 22020

> <Kd (nM)>


> <EC50 (nM)>


> <kon (M-1-s-1)>


> <koff (s-1)>


> <pH>


> <Temp C>
25.00

> <Curation/DataSource>
ChEMBL

> <Article DOI>
10.1016/j.bmc.2015.02.032

> <PMID>
25766629

> <PubChem AID>


> <Patent Number>


> <Authors>
Saxena, S; Samala, G; Renuka, J; Sridevi, JP; Yogeeswari, P; Sriram, D

> <Institution>
Birla Institute of Technology&amp; Science-Pilani

> <Link to Ligand in BindingDB>
http://www.bindingdb.org/bind/chemsearch/marvin/MolStructure.jsp?monomerid=50066105

> <Link to Ligand-Target Pair in BindingDB>
http://www.bindingdb.org/jsp/dbsearch/PrimarySearch_ki.jsp?energyterm=kJ/mole&tag=pol&polymerid=50006452&target=DNA+gyrase+subunit+B&column=ki&startPg=0&Increment=50&submit=Search

> <Link to Ligand-Target Pair in BindingDB>
http://www.bindingdb.org/jsp/dbsearch/PrimarySearch_ki.jsp?energyterm=kJ/mole&tag=r21&monomerid=50066105&enzyme=DNA+gyrase+subunit+B&column=ki&startPg=0&Increment=50&submit=Search

> <Ligand HET ID in PDB>


> <PDB ID(s) for Ligand-Target Complex>


> <PubChem CID>
118729471

> <PubChem SID>
313071624

> <ChEBI ID of Ligand>


> <ChEMBL ID of Ligand>


> <DrugBank ID of Ligand>


> <IUPHAR_GRAC ID of Ligand>


> <KEGG ID of Ligand>


> <ZINC ID of Ligand>


> <Number of Protein Chains in Target (>1 implies a multichain complex)>
1

> <BindingDB Target Chain Sequence>
MAAQKNNAPKEYGADSITILEGLEAVRKRPGMYIGSTGERGLHHLIWEVVDNAVDEAMAGFATRVDVKIHADGSVEVRDDGRGIPVEMHATGMPTIDVVMTQLHAGGKFDGETYAVSGGLHGVGVSVVNALSTRLEATVLRDGYEWFQYYDRSVPGKLKQGGETKETGTTIRFWADPEIFETTDYNFETVARRLQEMAFLNKGLTIELTDERVTAEEVVDDVVKDTAEAPKTADEKAAEATGPSKVKHRVFHYPGGLVDYVKHINRTKTPIQQSIIDFDGKGPGHEVEIAMQWNAGYSESVHTFANTINTHEGGTHEEGFRAALTSVVNRYAKDKKLLKDKDPNLTGDDIREGLAAVISVKVAEPQFEGQTKTKLGNTEVKSFVQKICNEQLQHWFEANPAEAKTVVNKAVSSAQARIAARKARELVRRKSATDIGGLPGKLADCRSTDPSKSELYVVEGDSAGGSAKSGRDSMFQAILPLRGKIINVEKARIDRVLKNTEVQSIITALGTGIHDEFDISKLRYHKIVLMADADVDGQHISTLLLTLLFRFMKPLVENGHIFLAQPPLYKLKWQRSEPEFAYSDRERDGLLEAGRAAGKKINVDDGIQRYKGLGEMDAKELWETTMDPSVRVLRQVTLDDAAAADELFSILMGEDVEARRSFITRNAKDVRFLDV

> <PDB ID(s) of Target Chain>
4BAE

> <UniProt (SwissProt) Recommended Name of Target Chain>
DNA gyrase subunit B

> <UniProt (SwissProt) Entry Name of Target Chain>
GYRB_MYCSM

> <UniProt (SwissProt) Primary ID of Target Chain>
P0C559

> <UniProt (SwissProt) Secondary ID(s) of Target Chain>
P48355,Q59555

> <UniProt (SwissProt) Alternative ID(s) of Target Chain>


> <UniProt (TrEMBL) Submitted Name of Target Chain>


> <UniProt (TrEMBL) Entry Name of Target Chain>


> <UniProt (TrEMBL) Primary ID of Target Chain>


> <UniProt (TrEMBL) Secondary ID(s) of Target Chain>


> <UniProt (TrEMBL) Alternative ID(s) of Target Chain>


$$$$

  SciTegic09081514182D

 29 32  0  0  0  0            999 V2000
   -2.6111    0.7486    0.0000 C   0  0
   -2.6111   -0.7486    0.0000 C   0  0
   -1.2964   -1.4973    0.0000 C   0  0
   -1.2964    1.4973    0.0000 C   0  0
    0.0000    0.7486    0.0000 C   0  0
    0.0000   -0.7486    0.0000 C   0  0
    1.2964   -1.4973    0.0000 N   0  0
    2.5929   -0.7486    0.0000 C   0  0
    2.5929    0.7486    0.0000 C   0  0
    1.2964    1.4973    0.0000 C   0  0
    1.2964    2.9980    0.0000 N   0  0
   -0.0014    3.7503    0.0000 C   0  0
    0.0011    5.2503    0.0000 C   0  0
    1.3014    5.9981    0.0000 C   0  0
    2.5992    5.2460    0.0000 C   0  0
    2.5967    3.7460    0.0000 C   0  0
    1.3069    7.4990    0.0000 N   0  0
    2.6090    8.2454    0.0000 C   0  0
    3.6462    7.6419    0.0000 O   0  0
    2.6145    9.7462    0.0000 N   0  0
    3.9166   10.4926    0.0000 C   0  0
    3.9243   11.9926    0.0000 C   0  0
    5.2272   12.7360    0.0000 C   0  0
    6.5224   11.9794    0.0000 C   0  0
    6.5147   10.4794    0.0000 C   0  0
    5.2119    9.7360    0.0000 C   0  0
    3.6321   -1.3486    0.0000 C   0  0
    7.8275   12.7204    0.0000 O   0  0
    8.8628   12.1137    0.0000 C   0  0
  1  2  2  0
  2  3  1  0
  3  6  2  0
  5  4  2  0
  4  1  1  0
  5  6  1  0
  6  7  1  0
  7  8  2  0
  8  9  1  0
  9 10  2  0
 10  5  1  0
 11 12  1  0
 11 16  1  0
 12 13  1  0
 13 14  1  0
 14 15  1  0
 15 16  1  0
 10 11  1  0
 14 17  1  0
 17 18  1  0
 18 19  2  0
 18 20  1  0
 20 21  1  0
 21 22  2  0
 22 23  1  0
 23 24  2  0
 24 25  1  0
 25 26  2  0
 26 21  1  0
  8 27  1  0
 24 28  1  0
 28 29  1  0
M  END
> <From> 
www.bindingDB.org

> <BindingDB Reactant_set_id>
50303815

> <Ligand InChI>
InChI=1S/C23H26N4O2/c1-16-15-22(20-5-3-4-6-21(20)24-16)27-13-11-18(12-14-27)26-23(28)25-17-7-9-19(29-2)10-8-17/h3-10,15,18H,11-14H2,1-2H3,(H2,25,26,28)

> <Ligand InChI Key>
OCTMBINVCADVPR-UHFFFAOYSA-N

> <BindingDB MonomerID>
50066962

> <BindingDB Ligand Name>
CHEMBL3403247

> <Target Name Assigned by Curator or DataSource>
DNA gyrase subunit B

> <Target Source Organism According to Curator or DataSource>


> <Ki (nM)>


> <IC50 (nM)>
 22020

> <Kd (nM)>


> <EC50 (nM)>


> <kon (M-1-s-1)>


> <koff (s-1)>


> <pH>


> <Temp C>


> <Curation/DataSource>
ChEMBL

> <Article DOI>
10.1016/j.bmc.2015.03.004

> <PMID>
25801151

> <PubChem AID>


> <Patent Number>


> <Authors>
Medapi, B; Renuka, J; Saxena, S; Sridevi, JP; Medishetti, R; Kulkarni, P; Yogeeswari, P; Sriram, D

> <Institution>
Birla Institute of Technology&amp; Science-Pilani

> <Link to Ligand in BindingDB>
http://www.bindingdb.org/bind/chemsearch/marvin/MolStructure.jsp?monomerid=50066962

> <Link to Ligand-Target Pair in BindingDB>
http://www.bindingdb.org/jsp/dbsearch/PrimarySearch_ki.jsp?energyterm=kJ/mole&tag=pol&polymerid=50006452&target=DNA+gyrase+subunit+B&column=ki&startPg=0&Increment=50&submit=Search

> <Link to Ligand-Target Pair in BindingDB>
http://www.bindingdb.org/jsp/dbsearch/PrimarySearch_ki.jsp?energyterm=kJ/mole&tag=r21&monomerid=50066962&enzyme=DNA+gyrase+subunit+B&column=ki&startPg=0&Increment=50&submit=Search

> <Ligand HET ID in PDB>


> <PDB ID(s) for Ligand-Target Complex>


> <PubChem CID>
118729663

> <PubChem SID>
103961498

> <ChEBI ID of Ligand>


> <ChEMBL ID of Ligand>
CHEMBL286814

> <DrugBank ID of Ligand>


> <IUPHAR_GRAC ID of Ligand>


> <KEGG ID of Ligand>


> <ZINC ID of Ligand>
ZINC13513450

> <Number of Protein Chains in Target (>1 implies a multichain complex)>
1

> <BindingDB Target Chain Sequence>
MAAQKNNAPKEYGADSITILEGLEAVRKRPGMYIGSTGERGLHHLIWEVVDNAVDEAMAGFATRVDVKIHADGSVEVRDDGRGIPVEMHATGMPTIDVVMTQLHAGGKFDGETYAVSGGLHGVGVSVVNALSTRLEATVLRDGYEWFQYYDRSVPGKLKQGGETKETGTTIRFWADPEIFETTDYNFETVARRLQEMAFLNKGLTIELTDERVTAEEVVDDVVKDTAEAPKTADEKAAEATGPSKVKHRVFHYPGGLVDYVKHINRTKTPIQQSIIDFDGKGPGHEVEIAMQWNAGYSESVHTFANTINTHEGGTHEEGFRAALTSVVNRYAKDKKLLKDKDPNLTGDDIREGLAAVISVKVAEPQFEGQTKTKLGNTEVKSFVQKICNEQLQHWFEANPAEAKTVVNKAVSSAQARIAARKARELVRRKSATDIGGLPGKLADCRSTDPSKSELYVVEGDSAGGSAKSGRDSMFQAILPLRGKIINVEKARIDRVLKNTEVQSIITALGTGIHDEFDISKLRYHKIVLMADADVDGQHISTLLLTLLFRFMKPLVENGHIFLAQPPLYKLKWQRSEPEFAYSDRERDGLLEAGRAAGKKINVDDGIQRYKGLGEMDAKELWETTMDPSVRVLRQVTLDDAAAADELFSILMGEDVEARRSFITRNAKDVRFLDV

> <PDB ID(s) of Target Chain>
4BAE

> <UniProt (SwissProt) Recommended Name of Target Chain>
DNA gyrase subunit B

> <UniProt (SwissProt) Entry Name of Target Chain>
GYRB_MYCSM

> <UniProt (SwissProt) Primary ID of Target Chain>
P0C559

> <UniProt (SwissProt) Secondary ID(s) of Target Chain>
P48355,Q59555

> <UniProt (SwissProt) Alternative ID(s) of Target Chain>


> <UniProt (TrEMBL) Submitted Name of Target Chain>


> <UniProt (TrEMBL) Entry Name of Target Chain>


> <UniProt (TrEMBL) Primary ID of Target Chain>


> <UniProt (TrEMBL) Secondary ID(s) of Target Chain>


> <UniProt (TrEMBL) Alternative ID(s) of Target Chain>


$$$$

  SciTegic10231713512D

 32 35  0  0  0  0            999 V2000
    1.4679   -1.9975    0.0000 C   0  0
    1.4667   -2.8171    0.0000 C   0  0
    2.1748   -3.2260    0.0000 C   0  0
    2.1730   -1.5887    0.0000 C   0  0
    2.8816   -1.9939    0.0000 C   0  0
    2.8864   -2.8171    0.0000 C   0  0
    3.6708   -3.0669    0.0000 N   0  0
    4.1508   -2.3981    0.0000 C   0  0
    3.6630   -1.7350    0.0000 C   0  0
    3.9109   -0.9564    0.0000 O   0  0
    4.9680   -2.3933    0.0000 O   0  0
    3.9279   -3.8426    0.0000 C   0  0
    3.3846   -4.4531    0.0000 C   0  0
    3.6416   -5.2288    0.0000 N   0  0
    3.1012   -5.8376    0.0000 C   0  0
    3.3553   -6.6105    0.0000 C   0  0
    4.1551   -6.7800    0.0000 N   0  0
    4.7004   -6.1701    0.0000 C   0  0
    4.4460   -5.3908    0.0000 C   0  0
    4.4092   -7.5567    0.0000 N   0  0
    5.2089   -7.7249    0.0000 C   0  0
    5.7544   -7.1165    0.0000 C   0  0
    6.5532   -7.2885    0.0000 C   0  0
    7.0985   -6.6809    0.0000 C   0  0
    6.8446   -5.9033    0.0000 C   0  0
    6.0402   -5.7367    0.0000 C   0  0
    5.4984   -6.3456    0.0000 C   0  0
    6.8053   -8.0658    0.0000 C   0  0
    6.2582   -8.6729    0.0000 F   0  0
    7.6046   -8.2362    0.0000 F   0  0
    7.0122   -8.8529    0.0000 F   0  0
    0.7601   -1.5891    0.0000 Cl  0  0
  1  2  2  0
  2  3  1  0
  3  6  2  0
  5  4  2  0
  4  1  1  0
  5  6  1  0
  6  7  1  0
  7  8  1  0
  8  9  1  0
  9  5  1  0
  9 10  2  0
  8 11  2  0
  7 12  1  0
 12 13  1  0
 13 14  1  0
 14 15  1  0
 14 19  1  0
 15 16  1  0
 16 17  1  0
 17 18  1  0
 18 19  1  0
 17 20  1  0
 20 21  1  0
 21 22  1  0
 22 23  2  0
 23 24  1  0
 24 25  2  0
 25 26  1  0
 26 27  2  0
 27 22  1  0
 23 28  1  0
 28 29  1  0
 28 30  1  0
 28 31  1  0
  1 32  1  0
M  END
> <From> 
www.bindingDB.org

> <BindingDB Reactant_set_id>
50543816

> <Ligand InChI>
InChI=1S/C22H22ClF3N4O2/c23-16-5-6-19-17(13-16)20(31)21(32)30(19)12-9-28-7-10-29(11-8-28)27-14-15-3-1-2-4-18(15)22(24,25)26/h1-6,13,27H,7-12,14H2

> <Ligand InChI Key>
KNFNEOCIXQAEOF-UHFFFAOYSA-N

> <BindingDB MonomerID>
50208283

> <BindingDB Ligand Name>
CHEMBL3884024

> <Target Name Assigned by Curator or DataSource>
DNA gyrase subunit B

> <Target Source Organism According to Curator or DataSource>


> <Ki (nM)>


> <IC50 (nM)>
 22100

> <Kd (nM)>


> <EC50 (nM)>


> <kon (M-1-s-1)>


> <koff (s-1)>


> <pH>


> <Temp C>


> <Curation/DataSource>
ChEMBL

> <Article DOI>
10.1016/j.ejmech.2016.08.034

> <PMID>
27569197

> <PubChem AID>


> <Patent Number>


> <Authors>
Chaudhari, K; Surana, S; Jain, P; Patel, HM

> <Institution>
R. C. Patel Institute of Pharmaceutical Education and Research

> <Link to Ligand in BindingDB>
http://www.bindingdb.org/bind/chemsearch/marvin/MolStructure.jsp?monomerid=50208283

> <Link to Ligand-Target Pair in BindingDB>
http://www.bindingdb.org/jsp/dbsearch/PrimarySearch_ki.jsp?energyterm=kJ/mole&tag=pol&polymerid=50006452&target=DNA+gyrase+subunit+B&column=ki&startPg=0&Increment=50&submit=Search

> <Link to Ligand-Target Pair in BindingDB>
http://www.bindingdb.org/jsp/dbsearch/PrimarySearch_ki.jsp?energyterm=kJ/mole&tag=r21&monomerid=50208283&enzyme=DNA+gyrase+subunit+B&column=ki&startPg=0&Increment=50&submit=Search

> <Ligand HET ID in PDB>


> <PDB ID(s) for Ligand-Target Complex>


> <PubChem CID>
134131103

> <PubChem SID>
375981976

> <ChEBI ID of Ligand>


> <ChEMBL ID of Ligand>


> <DrugBank ID of Ligand>


> <IUPHAR_GRAC ID of Ligand>


> <KEGG ID of Ligand>


> <ZINC ID of Ligand>


> <Number of Protein Chains in Target (>1 implies a multichain complex)>
1

> <BindingDB Target Chain Sequence>
MAAQKNNAPKEYGADSITILEGLEAVRKRPGMYIGSTGERGLHHLIWEVVDNAVDEAMAGFATRVDVKIHADGSVEVRDDGRGIPVEMHATGMPTIDVVMTQLHAGGKFDGETYAVSGGLHGVGVSVVNALSTRLEATVLRDGYEWFQYYDRSVPGKLKQGGETKETGTTIRFWADPEIFETTDYNFETVARRLQEMAFLNKGLTIELTDERVTAEEVVDDVVKDTAEAPKTADEKAAEATGPSKVKHRVFHYPGGLVDYVKHINRTKTPIQQSIIDFDGKGPGHEVEIAMQWNAGYSESVHTFANTINTHEGGTHEEGFRAALTSVVNRYAKDKKLLKDKDPNLTGDDIREGLAAVISVKVAEPQFEGQTKTKLGNTEVKSFVQKICNEQLQHWFEANPAEAKTVVNKAVSSAQARIAARKARELVRRKSATDIGGLPGKLADCRSTDPSKSELYVVEGDSAGGSAKSGRDSMFQAILPLRGKIINVEKARIDRVLKNTEVQSIITALGTGIHDEFDISKLRYHKIVLMADADVDGQHISTLLLTLLFRFMKPLVENGHIFLAQPPLYKLKWQRSEPEFAYSDRERDGLLEAGRAAGKKINVDDGIQRYKGLGEMDAKELWETTMDPSVRVLRQVTLDDAAAADELFSILMGEDVEARRSFITRNAKDVRFLDV

> <PDB ID(s) of Target Chain>
4BAE

> <UniProt (SwissProt) Recommended Name of Target Chain>
DNA gyrase subunit B

> <UniProt (SwissProt) Entry Name of Target Chain>
GYRB_MYCSM

> <UniProt (SwissProt) Primary ID of Target Chain>
P0C559

> <UniProt (SwissProt) Secondary ID(s) of Target Chain>
P48355,Q59555

> <UniProt (SwissProt) Alternative ID(s) of Target Chain>


> <UniProt (TrEMBL) Submitted Name of Target Chain>


> <UniProt (TrEMBL) Entry Name of Target Chain>


> <UniProt (TrEMBL) Primary ID of Target Chain>


> <UniProt (TrEMBL) Secondary ID(s) of Target Chain>


> <UniProt (TrEMBL) Alternative ID(s) of Target Chain>


$$$$

  SciTegic04201612532D

 34 37  0  0  0  0            999 V2000
   -1.2964    1.4973    0.0000 N   0  0
   -2.6111    0.7486    0.0000 C   0  0
   -2.6111   -0.7486    0.0000 C   0  0
   -1.2964   -1.4973    0.0000 C   0  0
    0.0000   -0.7486    0.0000 C   0  0
    1.2964   -1.4973    0.0000 C   0  0
    2.5929   -0.7486    0.0000 C   0  0
    2.5929    0.7486    0.0000 C   0  0
    1.2964    1.4973    0.0000 C   0  0
    0.0000    0.7486    0.0000 C   0  0
   -3.9122   -1.4966    0.0000 C   0  0
   -3.9138   -2.4966    0.0000 O   0  0
   -5.2109   -0.7445    0.0000 O   0  0
   -1.2907   -2.9981    0.0000 N   0  0
   -2.5870   -3.7544    0.0000 C   0  0
   -2.5835   -5.2544    0.0000 C   0  0
   -3.8807   -6.0076    0.0000 C   0  0
   -5.1815   -5.2608    0.0000 C   0  0
   -5.1852   -3.7608    0.0000 C   0  0
   -3.8880   -3.0076    0.0000 C   0  0
   -6.4810   -6.0117    0.0000 N   0  0
   -7.7815   -5.2626    0.0000 C   0  0
   -9.0810   -6.0135    0.0000 C   0  0
  -10.3815   -5.2644    0.0000 C   0  0
  -14.2755   -7.5217    0.0000 O   0  0
  -14.2791   -6.0217    0.0000 C   0  0
  -12.9819   -5.2686    0.0000 C   0  0
  -11.6810   -6.0154    0.0000 N   0  0
  -11.6774   -7.5154    0.0000 C   0  0
  -12.9746   -8.2686    0.0000 C   0  0
   -6.5121   -1.4924    0.0000 C   0  0
   -7.5506   -0.8910    0.0000 C   0  0
    3.8942   -1.4964    0.0000 O   0  0
    4.9326   -0.8949    0.0000 C   0  0
  1  2  2  0
  2  3  1  0
  3  4  2  0
  4  5  1  0
  5  6  2  0
  6  7  1  0
  7  8  2  0
  8  9  1  0
  9 10  2  0
  1 10  1  0
  5 10  1  0
 11 12  2  0
 11 13  1  0
  3 11  1  0
 15 16  1  0
 16 17  2  0
 17 18  1  0
 18 19  2  0
 19 20  1  0
 15 20  2  0
 22 23  1  0
 23 24  1  0
 21 22  1  0
 25 26  1  0
 26 27  1  0
 27 28  1  0
 28 29  1  0
 29 30  1  0
 25 30  1  0
 24 28  1  0
 18 21  1  0
 14 15  1  0
  4 14  1  0
 31 32  1  0
 13 31  1  0
 33 34  1  0
  7 33  1  0
M  END
> <From> 
www.bindingDB.org

> <BindingDB Reactant_set_id>
50426789

> <Ligand InChI>
InChI=1S/C26H32N4O4/c1-3-34-26(31)23-18-28-24-10-9-21(32-2)17-22(24)25(23)29-20-7-5-19(6-8-20)27-11-4-12-30-13-15-33-16-14-30/h5-10,17-18,27H,3-4,11-16H2,1-2H3,(H,28,29)

> <Ligand InChI Key>
KNPLOCNQXJFMRJ-UHFFFAOYSA-N

> <BindingDB MonomerID>
50126836

> <BindingDB Ligand Name>
CHEMBL3628352

> <Target Name Assigned by Curator or DataSource>
DNA gyrase subunit B

> <Target Source Organism According to Curator or DataSource>


> <Ki (nM)>


> <IC50 (nM)>
 22310

> <Kd (nM)>


> <EC50 (nM)>


> <kon (M-1-s-1)>


> <koff (s-1)>


> <pH>


> <Temp C>


> <Curation/DataSource>
ChEMBL

> <Article DOI>
10.1016/j.ejmech.2015.06.032

> <PMID>
26318054

> <PubChem AID>


> <Patent Number>


> <Authors>
Medapi, B; Suryadevara, P; Renuka, J; Sridevi, JP; Yogeeswari, P; Sriram, D

> <Institution>
Birla Institute of Technology&amp;Science

> <Link to Ligand in BindingDB>
http://www.bindingdb.org/bind/chemsearch/marvin/MolStructure.jsp?monomerid=50126836

> <Link to Ligand-Target Pair in BindingDB>
http://www.bindingdb.org/jsp/dbsearch/PrimarySearch_ki.jsp?energyterm=kJ/mole&tag=pol&polymerid=50006452&target=DNA+gyrase+subunit+B&column=ki&startPg=0&Increment=50&submit=Search

> <Link to Ligand-Target Pair in BindingDB>
http://www.bindingdb.org/jsp/dbsearch/PrimarySearch_ki.jsp?energyterm=kJ/mole&tag=r21&monomerid=50126836&enzyme=DNA+gyrase+subunit+B&column=ki&startPg=0&Increment=50&submit=Search

> <Ligand HET ID in PDB>


> <PDB ID(s) for Ligand-Target Complex>


> <PubChem CID>
122193393

> <PubChem SID>
104018904

> <ChEBI ID of Ligand>


> <ChEMBL ID of Ligand>
CHEMBL38103

> <DrugBank ID of Ligand>


> <IUPHAR_GRAC ID of Ligand>


> <KEGG ID of Ligand>


> <ZINC ID of Ligand>
ZINC13494222

> <Number of Protein Chains in Target (>1 implies a multichain complex)>
1

> <BindingDB Target Chain Sequence>
MAAQKNNAPKEYGADSITILEGLEAVRKRPGMYIGSTGERGLHHLIWEVVDNAVDEAMAGFATRVDVKIHADGSVEVRDDGRGIPVEMHATGMPTIDVVMTQLHAGGKFDGETYAVSGGLHGVGVSVVNALSTRLEATVLRDGYEWFQYYDRSVPGKLKQGGETKETGTTIRFWADPEIFETTDYNFETVARRLQEMAFLNKGLTIELTDERVTAEEVVDDVVKDTAEAPKTADEKAAEATGPSKVKHRVFHYPGGLVDYVKHINRTKTPIQQSIIDFDGKGPGHEVEIAMQWNAGYSESVHTFANTINTHEGGTHEEGFRAALTSVVNRYAKDKKLLKDKDPNLTGDDIREGLAAVISVKVAEPQFEGQTKTKLGNTEVKSFVQKICNEQLQHWFEANPAEAKTVVNKAVSSAQARIAARKARELVRRKSATDIGGLPGKLADCRSTDPSKSELYVVEGDSAGGSAKSGRDSMFQAILPLRGKIINVEKARIDRVLKNTEVQSIITALGTGIHDEFDISKLRYHKIVLMADADVDGQHISTLLLTLLFRFMKPLVENGHIFLAQPPLYKLKWQRSEPEFAYSDRERDGLLEAGRAAGKKINVDDGIQRYKGLGEMDAKELWETTMDPSVRVLRQVTLDDAAAADELFSILMGEDVEARRSFITRNAKDVRFLDV

> <PDB ID(s) of Target Chain>
4BAE

> <UniProt (SwissProt) Recommended Name of Target Chain>
DNA gyrase subunit B

> <UniProt (SwissProt) Entry Name of Target Chain>
GYRB_MYCSM

> <UniProt (SwissProt) Primary ID of Target Chain>
P0C559

> <UniProt (SwissProt) Secondary ID(s) of Target Chain>
P48355,Q59555

> <UniProt (SwissProt) Alternative ID(s) of Target Chain>


> <UniProt (TrEMBL) Submitted Name of Target Chain>


> <UniProt (TrEMBL) Entry Name of Target Chain>


> <UniProt (TrEMBL) Primary ID of Target Chain>


> <UniProt (TrEMBL) Secondary ID(s) of Target Chain>


> <UniProt (TrEMBL) Alternative ID(s) of Target Chain>


$$$$

  SciTegic04201612532D

 32 35  0  0  0  0            999 V2000
   -1.2964    1.4973    0.0000 N   0  0
   -2.6111    0.7486    0.0000 C   0  0
   -2.6111   -0.7486    0.0000 C   0  0
   -1.2964   -1.4973    0.0000 C   0  0
    0.0000   -0.7486    0.0000 C   0  0
    1.2964   -1.4973    0.0000 C   0  0
    2.5929   -0.7486    0.0000 C   0  0
    2.5929    0.7486    0.0000 C   0  0
    1.2964    1.4973    0.0000 C   0  0
    0.0000    0.7486    0.0000 C   0  0
   -3.9122   -1.4966    0.0000 C   0  0
   -3.9138   -2.4966    0.0000 O   0  0
   -5.2109   -0.7445    0.0000 O   0  0
   -1.2907   -2.9981    0.0000 N   0  0
   -2.5870   -3.7544    0.0000 C   0  0
   -2.5835   -5.2544    0.0000 C   0  0
   -3.8807   -6.0076    0.0000 C   0  0
   -5.1815   -5.2608    0.0000 C   0  0
   -5.1852   -3.7608    0.0000 C   0  0
   -3.8880   -3.0076    0.0000 C   0  0
   -6.4810   -6.0117    0.0000 O   0  0
   -7.7815   -5.2626    0.0000 C   0  0
   -9.0810   -6.0135    0.0000 C   0  0
  -10.3815   -5.2644    0.0000 C   0  0
  -14.2755   -7.5217    0.0000 O   0  0
  -14.2791   -6.0217    0.0000 C   0  0
  -12.9819   -5.2686    0.0000 C   0  0
  -11.6810   -6.0154    0.0000 N   0  0
  -11.6774   -7.5154    0.0000 C   0  0
  -12.9746   -8.2686    0.0000 C   0  0
   -6.5121   -1.4924    0.0000 C   0  0
   -7.5506   -0.8910    0.0000 C   0  0
  1  2  2  0
  2  3  1  0
  3  4  2  0
  4  5  1  0
  5  6  2  0
  6  7  1  0
  7  8  2  0
  8  9  1  0
  9 10  2  0
  1 10  1  0
  5 10  1  0
 11 12  2  0
 11 13  1  0
  3 11  1  0
 15 16  1  0
 16 17  2  0
 17 18  1  0
 18 19  2  0
 19 20  1  0
 15 20  2  0
 22 23  1  0
 23 24  1  0
 21 22  1  0
 25 26  1  0
 26 27  1  0
 27 28  1  0
 28 29  1  0
 29 30  1  0
 25 30  1  0
 24 28  1  0
 18 21  1  0
 14 15  1  0
  4 14  1  0
 31 32  1  0
 13 31  1  0
M  END
> <From> 
www.bindingDB.org

> <BindingDB Reactant_set_id>
50426794

> <Ligand InChI>
InChI=1S/C25H29N3O4/c1-2-31-25(29)22-18-26-23-7-4-3-6-21(23)24(22)27-19-8-10-20(11-9-19)32-15-5-12-28-13-16-30-17-14-28/h3-4,6-11,18H,2,5,12-17H2,1H3,(H,26,27)

> <Ligand InChI Key>
PWOFLTLBFDEBPO-UHFFFAOYSA-N

> <BindingDB MonomerID>
50126841

> <BindingDB Ligand Name>
CHEMBL3627727

> <Target Name Assigned by Curator or DataSource>
DNA gyrase subunit B

> <Target Source Organism According to Curator or DataSource>


> <Ki (nM)>


> <IC50 (nM)>
 22830

> <Kd (nM)>


> <EC50 (nM)>


> <kon (M-1-s-1)>


> <koff (s-1)>


> <pH>


> <Temp C>


> <Curation/DataSource>
ChEMBL

> <Article DOI>
10.1016/j.ejmech.2015.06.032

> <PMID>
26318054

> <PubChem AID>


> <Patent Number>


> <Authors>
Medapi, B; Suryadevara, P; Renuka, J; Sridevi, JP; Yogeeswari, P; Sriram, D

> <Institution>
Birla Institute of Technology&amp;Science

> <Link to Ligand in BindingDB>
http://www.bindingdb.org/bind/chemsearch/marvin/MolStructure.jsp?monomerid=50126841

> <Link to Ligand-Target Pair in BindingDB>
http://www.bindingdb.org/jsp/dbsearch/PrimarySearch_ki.jsp?energyterm=kJ/mole&tag=pol&polymerid=50006452&target=DNA+gyrase+subunit+B&column=ki&startPg=0&Increment=50&submit=Search

> <Link to Ligand-Target Pair in BindingDB>
http://www.bindingdb.org/jsp/dbsearch/PrimarySearch_ki.jsp?energyterm=kJ/mole&tag=r21&monomerid=50126841&enzyme=DNA+gyrase+subunit+B&column=ki&startPg=0&Increment=50&submit=Search

> <Ligand HET ID in PDB>


> <PDB ID(s) for Ligand-Target Complex>


> <PubChem CID>
122193388

> <PubChem SID>
104018909

> <ChEBI ID of Ligand>


> <ChEMBL ID of Ligand>


> <DrugBank ID of Ligand>


> <IUPHAR_GRAC ID of Ligand>


> <KEGG ID of Ligand>


> <ZINC ID of Ligand>
ZINC29317135

> <Number of Protein Chains in Target (>1 implies a multichain complex)>
1

> <BindingDB Target Chain Sequence>
MAAQKNNAPKEYGADSITILEGLEAVRKRPGMYIGSTGERGLHHLIWEVVDNAVDEAMAGFATRVDVKIHADGSVEVRDDGRGIPVEMHATGMPTIDVVMTQLHAGGKFDGETYAVSGGLHGVGVSVVNALSTRLEATVLRDGYEWFQYYDRSVPGKLKQGGETKETGTTIRFWADPEIFETTDYNFETVARRLQEMAFLNKGLTIELTDERVTAEEVVDDVVKDTAEAPKTADEKAAEATGPSKVKHRVFHYPGGLVDYVKHINRTKTPIQQSIIDFDGKGPGHEVEIAMQWNAGYSESVHTFANTINTHEGGTHEEGFRAALTSVVNRYAKDKKLLKDKDPNLTGDDIREGLAAVISVKVAEPQFEGQTKTKLGNTEVKSFVQKICNEQLQHWFEANPAEAKTVVNKAVSSAQARIAARKARELVRRKSATDIGGLPGKLADCRSTDPSKSELYVVEGDSAGGSAKSGRDSMFQAILPLRGKIINVEKARIDRVLKNTEVQSIITALGTGIHDEFDISKLRYHKIVLMADADVDGQHISTLLLTLLFRFMKPLVENGHIFLAQPPLYKLKWQRSEPEFAYSDRERDGLLEAGRAAGKKINVDDGIQRYKGLGEMDAKELWETTMDPSVRVLRQVTLDDAAAADELFSILMGEDVEARRSFITRNAKDVRFLDV

> <PDB ID(s) of Target Chain>
4BAE

> <UniProt (SwissProt) Recommended Name of Target Chain>
DNA gyrase subunit B

> <UniProt (SwissProt) Entry Name of Target Chain>
GYRB_MYCSM

> <UniProt (SwissProt) Primary ID of Target Chain>
P0C559

> <UniProt (SwissProt) Secondary ID(s) of Target Chain>
P48355,Q59555

> <UniProt (SwissProt) Alternative ID(s) of Target Chain>


> <UniProt (TrEMBL) Submitted Name of Target Chain>


> <UniProt (TrEMBL) Entry Name of Target Chain>


> <UniProt (TrEMBL) Primary ID of Target Chain>


> <UniProt (TrEMBL) Secondary ID(s) of Target Chain>


> <UniProt (TrEMBL) Alternative ID(s) of Target Chain>


$$$$

  Mrv0541 11171616332D          

 32 35  0  0  0  0            999 V2000
    9.2493   -8.1468    0.0000 O   0  0  0  0  0  0  0  0  0  0  0  0
    9.7342   -7.4792    0.0000 C   0  0  0  0  0  0  0  0  0  0  0  0
    9.2493   -6.8118    0.0000 C   0  0  0  0  0  0  0  0  0  0  0  0
    8.4647   -7.0667    0.0000 C   0  0  0  0  0  0  0  0  0  0  0  0
    8.4647   -7.8917    0.0000 C   0  0  0  0  0  0  0  0  0  0  0  0
    7.7502   -6.6542    0.0000 C   0  0  0  0  0  0  0  0  0  0  0  0
    7.0356   -7.0667    0.0000 C   0  0  0  0  0  0  0  0  0  0  0  0
    7.0356   -7.8917    0.0000 C   0  0  0  0  0  0  0  0  0  0  0  0
    7.7502   -8.3043    0.0000 C   0  0  0  0  0  0  0  0  0  0  0  0
   10.5592   -7.4792    0.0000 C   0  0  0  0  0  0  0  0  0  0  0  0
   10.9717   -8.1937    0.0000 O   0  0  0  0  0  0  0  0  0  0  0  0
   10.9717   -6.7648    0.0000 O   0  0  0  0  0  0  0  0  0  0  0  0
    6.3212   -6.6542    0.0000 N   0  0  0  0  0  0  0  0  0  0  0  0
    5.6067   -7.0667    0.0000 C   0  0  0  0  0  0  0  0  0  0  0  0
    4.8922   -6.6542    0.0000 C   0  0  0  0  0  0  0  0  0  0  0  0
    4.8922   -5.8292    0.0000 N   0  0  0  0  0  0  0  0  0  0  0  0
    5.6067   -5.4168    0.0000 C   0  0  0  0  0  0  0  0  0  0  0  0
    6.3212   -5.8292    0.0000 C   0  0  0  0  0  0  0  0  0  0  0  0
    4.1778   -5.4168    0.0000 C   0  0  0  0  0  0  0  0  0  0  0  0
    4.1778   -4.5918    0.0000 O   0  0  0  0  0  0  0  0  0  0  0  0
    3.4633   -5.8292    0.0000 C   0  0  0  0  0  0  0  0  0  0  0  0
    2.7488   -5.4168    0.0000 C   0  0  0  0  0  0  0  0  0  0  0  0
    2.0344   -5.8292    0.0000 C   0  0  0  0  0  0  0  0  0  0  0  0
    2.0344   -6.6542    0.0000 C   0  0  0  0  0  0  0  0  0  0  0  0
    2.7488   -7.0667    0.0000 C   0  0  0  0  0  0  0  0  0  0  0  0
    3.4633   -6.6542    0.0000 N   0  0  0  0  0  0  0  0  0  0  0  0
   11.7967   -6.7648    0.0000 C   0  0  0  0  0  0  0  0  0  0  0  0
   12.2092   -6.0503    0.0000 C   0  0  0  0  0  0  0  0  0  0  0  0
    2.7488   -4.5918    0.0000 C   0  0  0  0  0  0  0  0  0  0  0  0
    3.4633   -4.1793    0.0000 F   0  0  0  0  0  0  0  0  0  0  0  0
    2.0344   -4.1793    0.0000 F   0  0  0  0  0  0  0  0  0  0  0  0
    2.7417   -3.7667    0.0000 F   0  0  0  0  0  0  0  0  0  0  0  0
  1  2  4  0  0  0  0
  2  3  4  0  0  0  0
  3  4  4  0  0  0  0
  4  5  4  0  0  0  0
  1  5  4  0  0  0  0
  6  7  4  0  0  0  0
  7  8  4  0  0  0  0
  8  9  4  0  0  0  0
  5  9  4  0  0  0  0
  4  6  4  0  0  0  0
 10 11  2  0  0  0  0
 10 12  1  0  0  0  0
  2 10  1  0  0  0  0
 13 14  1  0  0  0  0
 14 15  1  0  0  0  0
 15 16  1  0  0  0  0
 16 17  1  0  0  0  0
 17 18  1  0  0  0  0
 13 18  1  0  0  0  0
 19 20  2  0  0  0  0
 21 22  4  0  0  0  0
 22 23  4  0  0  0  0
 23 24  4  0  0  0  0
 24 25  4  0  0  0  0
 25 26  4  0  0  0  0
 21 26  4  0  0  0  0
 19 21  1  0  0  0  0
 16 19  1  0  0  0  0
  7 13  1  0  0  0  0
 27 28  1  0  0  0  0
 12 27  1  0  0  0  0
 22 29  1  0  0  0  0
 29 30  1  0  0  0  0
 29 31  1  0  0  0  0
 29 32  1  0  0  0  0
M  END
> <From> 
www.bindingDB.org

> <BindingDB Reactant_set_id>
50369878

> <Ligand InChI>
InChI=1S/C22H20F3N3O4/c1-2-31-21(30)18-13-14-12-15(5-6-17(14)32-18)27-8-10-28(11-9-27)20(29)19-16(22(23,24)25)4-3-7-26-19/h3-7,12-13H,2,8-11H2,1H3

> <Ligand InChI Key>
OSIAYIWMKQTGQF-UHFFFAOYSA-N

> <BindingDB MonomerID>
50100644

> <BindingDB Ligand Name>
CHEMBL3323251

> <Target Name Assigned by Curator or DataSource>
DNA gyrase subunit B

> <Target Source Organism According to Curator or DataSource>


> <Ki (nM)>


> <IC50 (nM)>
 23400

> <Kd (nM)>


> <EC50 (nM)>


> <kon (M-1-s-1)>


> <koff (s-1)>


> <pH>


> <Temp C>


> <Curation/DataSource>
ChEMBL

> <Article DOI>
10.1016/j.bmc.2014.06.041

> <PMID>
25129171

> <PubChem AID>


> <Patent Number>


> <Authors>
Renuka, J; Reddy, KI; Srihari, K; Jeankumar, VU; Shravan, M; Sridevi, JP; Yogeeswari, P; Babu, KS; Sriram, D

> <Institution>
Institute of Technology&amp; Science-Pilani

> <Link to Ligand in BindingDB>
http://www.bindingdb.org/bind/chemsearch/marvin/MolStructure.jsp?monomerid=50100644

> <Link to Ligand-Target Pair in BindingDB>
http://www.bindingdb.org/jsp/dbsearch/PrimarySearch_ki.jsp?energyterm=kJ/mole&tag=pol&polymerid=50006452&target=DNA+gyrase+subunit+B&column=ki&startPg=0&Increment=50&submit=Search

> <Link to Ligand-Target Pair in BindingDB>
http://www.bindingdb.org/jsp/dbsearch/PrimarySearch_ki.jsp?energyterm=kJ/mole&tag=r21&monomerid=50100644&enzyme=DNA+gyrase+subunit+B&column=ki&startPg=0&Increment=50&submit=Search

> <Ligand HET ID in PDB>


> <PDB ID(s) for Ligand-Target Complex>


> <PubChem CID>
118710632

> <PubChem SID>
318490753

> <ChEBI ID of Ligand>


> <ChEMBL ID of Ligand>


> <DrugBank ID of Ligand>


> <IUPHAR_GRAC ID of Ligand>


> <KEGG ID of Ligand>


> <ZINC ID of Ligand>


> <Number of Protein Chains in Target (>1 implies a multichain complex)>
1

> <BindingDB Target Chain Sequence>
MAAQKNNAPKEYGADSITILEGLEAVRKRPGMYIGSTGERGLHHLIWEVVDNAVDEAMAGFATRVDVKIHADGSVEVRDDGRGIPVEMHATGMPTIDVVMTQLHAGGKFDGETYAVSGGLHGVGVSVVNALSTRLEATVLRDGYEWFQYYDRSVPGKLKQGGETKETGTTIRFWADPEIFETTDYNFETVARRLQEMAFLNKGLTIELTDERVTAEEVVDDVVKDTAEAPKTADEKAAEATGPSKVKHRVFHYPGGLVDYVKHINRTKTPIQQSIIDFDGKGPGHEVEIAMQWNAGYSESVHTFANTINTHEGGTHEEGFRAALTSVVNRYAKDKKLLKDKDPNLTGDDIREGLAAVISVKVAEPQFEGQTKTKLGNTEVKSFVQKICNEQLQHWFEANPAEAKTVVNKAVSSAQARIAARKARELVRRKSATDIGGLPGKLADCRSTDPSKSELYVVEGDSAGGSAKSGRDSMFQAILPLRGKIINVEKARIDRVLKNTEVQSIITALGTGIHDEFDISKLRYHKIVLMADADVDGQHISTLLLTLLFRFMKPLVENGHIFLAQPPLYKLKWQRSEPEFAYSDRERDGLLEAGRAAGKKINVDDGIQRYKGLGEMDAKELWETTMDPSVRVLRQVTLDDAAAADELFSILMGEDVEARRSFITRNAKDVRFLDV

> <PDB ID(s) of Target Chain>
4BAE

> <UniProt (SwissProt) Recommended Name of Target Chain>
DNA gyrase subunit B

> <UniProt (SwissProt) Entry Name of Target Chain>
GYRB_MYCSM

> <UniProt (SwissProt) Primary ID of Target Chain>
P0C559

> <UniProt (SwissProt) Secondary ID(s) of Target Chain>
P48355,Q59555

> <UniProt (SwissProt) Alternative ID(s) of Target Chain>


> <UniProt (TrEMBL) Submitted Name of Target Chain>


> <UniProt (TrEMBL) Entry Name of Target Chain>


> <UniProt (TrEMBL) Primary ID of Target Chain>


> <UniProt (TrEMBL) Secondary ID(s) of Target Chain>


> <UniProt (TrEMBL) Alternative ID(s) of Target Chain>


$$$$

  SciTegic04201612532D

 35 38  0  0  0  0            999 V2000
   -1.2964    1.4973    0.0000 N   0  0
   -2.6111    0.7486    0.0000 C   0  0
   -2.6111   -0.7486    0.0000 C   0  0
   -1.2964   -1.4973    0.0000 C   0  0
    0.0000   -0.7486    0.0000 C   0  0
    1.2964   -1.4973    0.0000 C   0  0
    2.5929   -0.7486    0.0000 C   0  0
    2.5929    0.7486    0.0000 C   0  0
    1.2964    1.4973    0.0000 C   0  0
    0.0000    0.7486    0.0000 C   0  0
   -3.9122   -1.4966    0.0000 C   0  0
   -3.9138   -2.4966    0.0000 O   0  0
   -5.2109   -0.7445    0.0000 O   0  0
   -1.2907   -2.9981    0.0000 N   0  0
   -2.5870   -3.7544    0.0000 C   0  0
   -2.5835   -5.2544    0.0000 C   0  0
   -3.8807   -6.0076    0.0000 C   0  0
   -5.1815   -5.2608    0.0000 C   0  0
   -5.1852   -3.7608    0.0000 C   0  0
   -3.8880   -3.0076    0.0000 C   0  0
   -6.4810   -6.0117    0.0000 O   0  0
   -7.7815   -5.2626    0.0000 C   0  0
   -9.0810   -6.0135    0.0000 C   0  0
  -10.3815   -5.2644    0.0000 C   0  0
  -14.2755   -7.5217    0.0000 N   0  0
  -14.2791   -6.0217    0.0000 C   0  0
  -12.9819   -5.2686    0.0000 C   0  0
  -11.6810   -6.0154    0.0000 N   0  0
  -11.6774   -7.5154    0.0000 C   0  0
  -12.9746   -8.2686    0.0000 C   0  0
   -6.5121   -1.4924    0.0000 C   0  0
   -7.5506   -0.8910    0.0000 C   0  0
  -15.5719   -8.2779    0.0000 C   0  0
  -15.5672   -9.4779    0.0000 C   0  0
    3.6321   -1.3486    0.0000 F   0  0
  1  2  2  0
  2  3  1  0
  3  4  2  0
  4  5  1  0
  5  6  2  0
  6  7  1  0
  7  8  2  0
  8  9  1  0
  9 10  2  0
  1 10  1  0
  5 10  1  0
 11 12  2  0
 11 13  1  0
  3 11  1  0
 15 16  1  0
 16 17  2  0
 17 18  1  0
 18 19  2  0
 19 20  1  0
 15 20  2  0
 22 23  1  0
 23 24  1  0
 21 22  1  0
 25 26  1  0
 26 27  1  0
 27 28  1  0
 28 29  1  0
 29 30  1  0
 25 30  1  0
 24 28  1  0
 18 21  1  0
 14 15  1  0
  4 14  1  0
 31 32  1  0
 13 31  1  0
 25 33  1  0
 33 34  1  0
  7 35  1  0
M  END
> <From> 
www.bindingDB.org

> <BindingDB Reactant_set_id>
50426784

> <Ligand InChI>
InChI=1S/C27H33FN4O3/c1-3-31-13-15-32(16-14-31)12-5-17-35-22-9-7-21(8-10-22)30-26-23-18-20(28)6-11-25(23)29-19-24(26)27(33)34-4-2/h6-11,18-19H,3-5,12-17H2,1-2H3,(H,29,30)

> <Ligand InChI Key>
DFKKYBNEOAZNNK-UHFFFAOYSA-N

> <BindingDB MonomerID>
50126830

> <BindingDB Ligand Name>
CHEMBL3628357

> <Target Name Assigned by Curator or DataSource>
DNA gyrase subunit B

> <Target Source Organism According to Curator or DataSource>


> <Ki (nM)>


> <IC50 (nM)>
 23610

> <Kd (nM)>


> <EC50 (nM)>


> <kon (M-1-s-1)>


> <koff (s-1)>


> <pH>


> <Temp C>


> <Curation/DataSource>
ChEMBL

> <Article DOI>
10.1016/j.ejmech.2015.06.032

> <PMID>
26318054

> <PubChem AID>


> <Patent Number>


> <Authors>
Medapi, B; Suryadevara, P; Renuka, J; Sridevi, JP; Yogeeswari, P; Sriram, D

> <Institution>
Birla Institute of Technology&amp;Science

> <Link to Ligand in BindingDB>
http://www.bindingdb.org/bind/chemsearch/marvin/MolStructure.jsp?monomerid=50126830

> <Link to Ligand-Target Pair in BindingDB>
http://www.bindingdb.org/jsp/dbsearch/PrimarySearch_ki.jsp?energyterm=kJ/mole&tag=pol&polymerid=50006452&target=DNA+gyrase+subunit+B&column=ki&startPg=0&Increment=50&submit=Search

> <Link to Ligand-Target Pair in BindingDB>
http://www.bindingdb.org/jsp/dbsearch/PrimarySearch_ki.jsp?energyterm=kJ/mole&tag=r21&monomerid=50126830&enzyme=DNA+gyrase+subunit+B&column=ki&startPg=0&Increment=50&submit=Search

> <Ligand HET ID in PDB>


> <PDB ID(s) for Ligand-Target Complex>


> <PubChem CID>
122193398

> <PubChem SID>
104018898

> <ChEBI ID of Ligand>


> <ChEMBL ID of Ligand>
CHEMBL35349

> <DrugBank ID of Ligand>


> <IUPHAR_GRAC ID of Ligand>


> <KEGG ID of Ligand>


> <ZINC ID of Ligand>
ZINC13597821

> <Number of Protein Chains in Target (>1 implies a multichain complex)>
1

> <BindingDB Target Chain Sequence>
MAAQKNNAPKEYGADSITILEGLEAVRKRPGMYIGSTGERGLHHLIWEVVDNAVDEAMAGFATRVDVKIHADGSVEVRDDGRGIPVEMHATGMPTIDVVMTQLHAGGKFDGETYAVSGGLHGVGVSVVNALSTRLEATVLRDGYEWFQYYDRSVPGKLKQGGETKETGTTIRFWADPEIFETTDYNFETVARRLQEMAFLNKGLTIELTDERVTAEEVVDDVVKDTAEAPKTADEKAAEATGPSKVKHRVFHYPGGLVDYVKHINRTKTPIQQSIIDFDGKGPGHEVEIAMQWNAGYSESVHTFANTINTHEGGTHEEGFRAALTSVVNRYAKDKKLLKDKDPNLTGDDIREGLAAVISVKVAEPQFEGQTKTKLGNTEVKSFVQKICNEQLQHWFEANPAEAKTVVNKAVSSAQARIAARKARELVRRKSATDIGGLPGKLADCRSTDPSKSELYVVEGDSAGGSAKSGRDSMFQAILPLRGKIINVEKARIDRVLKNTEVQSIITALGTGIHDEFDISKLRYHKIVLMADADVDGQHISTLLLTLLFRFMKPLVENGHIFLAQPPLYKLKWQRSEPEFAYSDRERDGLLEAGRAAGKKINVDDGIQRYKGLGEMDAKELWETTMDPSVRVLRQVTLDDAAAADELFSILMGEDVEARRSFITRNAKDVRFLDV

> <PDB ID(s) of Target Chain>
4BAE

> <UniProt (SwissProt) Recommended Name of Target Chain>
DNA gyrase subunit B

> <UniProt (SwissProt) Entry Name of Target Chain>
GYRB_MYCSM

> <UniProt (SwissProt) Primary ID of Target Chain>
P0C559

> <UniProt (SwissProt) Secondary ID(s) of Target Chain>
P48355,Q59555

> <UniProt (SwissProt) Alternative ID(s) of Target Chain>


> <UniProt (TrEMBL) Submitted Name of Target Chain>


> <UniProt (TrEMBL) Entry Name of Target Chain>


> <UniProt (TrEMBL) Primary ID of Target Chain>


> <UniProt (TrEMBL) Secondary ID(s) of Target Chain>


> <UniProt (TrEMBL) Alternative ID(s) of Target Chain>


$$$$

  SciTegic12231718572D

 28 31  0  0  0  0            999 V2000
    4.1607  -10.1714    0.0000 C   0  0
    3.4467  -10.5869    0.0000 C   0  0
    4.1573   -9.3464    0.0000 O   0  0
    4.8741  -10.5850    0.0000 N   0  0
    5.5883  -10.1696    0.0000 C   0  0
    3.4460  -11.4119    0.0000 N   0  0
    2.7359  -11.8274    0.0000 C   0  0
    2.7395  -12.6524    0.0000 C   0  0
    3.4529  -13.0619    0.0000 N   0  0
    4.1670  -12.6464    0.0000 C   0  0
    4.1635  -11.8214    0.0000 C   0  0
    3.4592  -15.5368    0.0000 N   0  0
    4.1733  -15.1212    0.0000 C   0  0
    4.1698  -14.2962    0.0000 C   0  0
    3.4563  -13.8868    0.0000 C   0  0
    2.7423  -14.3023    0.0000 C   0  0
    2.0289  -13.8928    0.0000 C   0  0
    1.3147  -14.3042    0.0000 C   0  0
    1.3141  -15.1292    0.0000 C   0  0
    2.0317  -15.5428    0.0000 C   0  0
    2.7457  -15.1273    0.0000 C   0  0
    0.6041  -15.5447    0.0000 Cl  0  0
    6.3041  -10.5797    0.0000 C   0  0
    6.3068  -11.4047    0.0000 C   0  0
    7.0226  -11.8149    0.0000 C   0  0
    7.7358  -11.4001    0.0000 C   0  0
    7.7331  -10.5751    0.0000 C   0  0
    7.0172  -10.1649    0.0000 C   0  0
  1  2  1  0
  1  3  2  0
  1  4  1  0
  4  5  1  0
  6  7  1  0
  7  8  1  0
  8  9  1  0
  9 10  1  0
 10 11  1  0
  6 11  1  0
 12 13  2  0
 13 14  1  0
 14 15  2  0
 15 16  1  0
 16 17  2  0
 17 18  1  0
 18 19  2  0
 19 20  1  0
 20 21  2  0
 12 21  1  0
 16 21  1  0
 19 22  1  0
  9 15  1  0
  2  6  1  0
  5 23  1  0
 23 24  1  0
 23 28  2  0
 24 25  2  0
 25 26  1  0
 26 27  2  0
 27 28  1  0
M  END
> <From> 
www.bindingDB.org

> <BindingDB Reactant_set_id>
50528061

> <Ligand InChI>
InChI=1S/C22H23ClN4O/c23-18-6-7-19-20(14-18)24-9-8-21(19)27-12-10-26(11-13-27)16-22(28)25-15-17-4-2-1-3-5-17/h1-9,14H,10-13,15-16H2,(H,25,28)

> <Ligand InChI Key>
VMSFLPCQDWOFOH-UHFFFAOYSA-N

> <BindingDB MonomerID>
50202016

> <BindingDB Ligand Name>
CHEMBL3963885

> <Target Name Assigned by Curator or DataSource>
DNA gyrase subunit B

> <Target Source Organism According to Curator or DataSource>


> <Ki (nM)>


> <IC50 (nM)>
 23800

> <Kd (nM)>


> <EC50 (nM)>


> <kon (M-1-s-1)>


> <koff (s-1)>


> <pH>


> <Temp C>


> <Curation/DataSource>
ChEMBL

> <Article DOI>
10.1016/j.ejmech.2016.06.042

> <PMID>
27371925

> <PubChem AID>


> <Patent Number>


> <Authors>
Jeankumar, VU; Reshma, RS; Vats, R; Janupally, R; Saxena, S; Yogeeswari, P; Sriram, D

> <Institution>
Birla Institute of Technology&amp; Science-Pilani

> <Link to Ligand in BindingDB>
http://www.bindingdb.org/bind/chemsearch/marvin/MolStructure.jsp?monomerid=50202016

> <Link to Ligand-Target Pair in BindingDB>
http://www.bindingdb.org/jsp/dbsearch/PrimarySearch_ki.jsp?energyterm=kJ/mole&tag=pol&polymerid=50006452&target=DNA+gyrase+subunit+B&column=ki&startPg=0&Increment=50&submit=Search

> <Link to Ligand-Target Pair in BindingDB>
http://www.bindingdb.org/jsp/dbsearch/PrimarySearch_ki.jsp?energyterm=kJ/mole&tag=r21&monomerid=50202016&enzyme=DNA+gyrase+subunit+B&column=ki&startPg=0&Increment=50&submit=Search

> <Ligand HET ID in PDB>


> <PDB ID(s) for Ligand-Target Complex>


> <PubChem CID>
25502951

> <PubChem SID>
375979575

> <ChEBI ID of Ligand>


> <ChEMBL ID of Ligand>


> <DrugBank ID of Ligand>


> <IUPHAR_GRAC ID of Ligand>


> <KEGG ID of Ligand>


> <ZINC ID of Ligand>


> <Number of Protein Chains in Target (>1 implies a multichain complex)>
1

> <BindingDB Target Chain Sequence>
MAAQKNNAPKEYGADSITILEGLEAVRKRPGMYIGSTGERGLHHLIWEVVDNAVDEAMAGFATRVDVKIHADGSVEVRDDGRGIPVEMHATGMPTIDVVMTQLHAGGKFDGETYAVSGGLHGVGVSVVNALSTRLEATVLRDGYEWFQYYDRSVPGKLKQGGETKETGTTIRFWADPEIFETTDYNFETVARRLQEMAFLNKGLTIELTDERVTAEEVVDDVVKDTAEAPKTADEKAAEATGPSKVKHRVFHYPGGLVDYVKHINRTKTPIQQSIIDFDGKGPGHEVEIAMQWNAGYSESVHTFANTINTHEGGTHEEGFRAALTSVVNRYAKDKKLLKDKDPNLTGDDIREGLAAVISVKVAEPQFEGQTKTKLGNTEVKSFVQKICNEQLQHWFEANPAEAKTVVNKAVSSAQARIAARKARELVRRKSATDIGGLPGKLADCRSTDPSKSELYVVEGDSAGGSAKSGRDSMFQAILPLRGKIINVEKARIDRVLKNTEVQSIITALGTGIHDEFDISKLRYHKIVLMADADVDGQHISTLLLTLLFRFMKPLVENGHIFLAQPPLYKLKWQRSEPEFAYSDRERDGLLEAGRAAGKKINVDDGIQRYKGLGEMDAKELWETTMDPSVRVLRQVTLDDAAAADELFSILMGEDVEARRSFITRNAKDVRFLDV

> <PDB ID(s) of Target Chain>
4BAE

> <UniProt (SwissProt) Recommended Name of Target Chain>
DNA gyrase subunit B

> <UniProt (SwissProt) Entry Name of Target Chain>
GYRB_MYCSM

> <UniProt (SwissProt) Primary ID of Target Chain>
P0C559

> <UniProt (SwissProt) Secondary ID(s) of Target Chain>
P48355,Q59555

> <UniProt (SwissProt) Alternative ID(s) of Target Chain>


> <UniProt (TrEMBL) Submitted Name of Target Chain>


> <UniProt (TrEMBL) Entry Name of Target Chain>


> <UniProt (TrEMBL) Primary ID of Target Chain>


> <UniProt (TrEMBL) Secondary ID(s) of Target Chain>


> <UniProt (TrEMBL) Alternative ID(s) of Target Chain>


$$$$

  Mrv0541 04171609262D          

 25 27  0  0  0  0            999 V2000
    0.7145   -0.4125    0.0000 C   0  0  0  0  0  0  0  0  0  0  0  0
    0.7145    0.4125    0.0000 C   0  0  0  0  0  0  0  0  0  0  0  0
    0.0000    0.8250    0.0000 C   0  0  0  0  0  0  0  0  0  0  0  0
   -0.7145    0.4125    0.0000 C   0  0  0  0  0  0  0  0  0  0  0  0
   -0.7145   -0.4125    0.0000 C   0  0  0  0  0  0  0  0  0  0  0  0
    0.0000   -0.8250    0.0000 C   0  0  0  0  0  0  0  0  0  0  0  0
   -1.4293   -0.8252    0.0000 C   0  0  0  0  0  0  0  0  0  0  0  0
   -2.1731   -0.4848    0.0000 S   0  0  0  0  0  0  0  0  0  0  0  0
   -2.7242   -1.0988    0.0000 C   0  0  0  0  0  0  0  0  0  0  0  0
   -2.3106   -1.8127    0.0000 C   0  0  0  0  0  0  0  0  0  0  0  0
   -1.5039   -1.6399    0.0000 C   0  0  0  0  0  0  0  0  0  0  0  0
   -2.6430   -2.5667    0.0000 C   0  0  0  0  0  0  0  0  0  0  0  0
   -2.2534   -3.0995    0.0000 O   0  0  0  0  0  0  0  0  0  0  0  0
   -3.2991   -2.6378    0.0000 N   0  0  0  0  0  0  0  0  0  0  0  0
   -3.5437   -1.0123    0.0000 N   0  0  0  0  0  0  0  0  0  0  0  0
   -3.8796   -0.2582    0.0000 C   0  0  0  0  0  0  0  0  0  0  0  0
   -4.7005   -0.1715    0.0000 N   0  0  0  0  0  0  0  0  0  0  0  0
   -3.4916    0.2757    0.0000 O   0  0  0  0  0  0  0  0  0  0  0  0
   -5.0363    0.5825    0.0000 C   0  0  0  0  0  0  0  0  0  0  0  0
   -5.8567    0.6704    0.0000 C   0  0  0  0  0  0  0  0  0  0  0  0
   -6.1908    1.4246    0.0000 C   0  0  0  0  0  0  0  0  0  0  0  0
   -5.7046    2.0912    0.0000 C   0  0  0  0  0  0  0  0  0  0  0  0
   -4.8843    2.0034    0.0000 C   0  0  0  0  0  0  0  0  0  0  0  0
   -4.5502    1.2491    0.0000 C   0  0  0  0  0  0  0  0  0  0  0  0
   -5.9719    2.6947    0.0000 C   0  0  0  0  0  0  0  0  0  0  0  0
  1  2  4  0  0  0  0
  2  3  4  0  0  0  0
  3  4  4  0  0  0  0
  4  5  4  0  0  0  0
  5  6  4  0  0  0  0
  6  1  4  0  0  0  0
  7  8  4  0  0  0  0
  8  9  4  0  0  0  0
  9 10  4  0  0  0  0
 10 11  4  0  0  0  0
 11  7  4  0  0  0  0
  5  7  1  0  0  0  0
 10 12  1  0  0  0  0
 12 13  2  0  0  0  0
 12 14  1  0  0  0  0
  9 15  1  0  0  0  0
 15 16  1  0  0  0  0
 16 17  1  0  0  0  0
 16 18  2  0  0  0  0
 17 19  1  0  0  0  0
 19 20  4  0  0  0  0
 20 21  4  0  0  0  0
 21 22  4  0  0  0  0
 22 23  4  0  0  0  0
 23 24  4  0  0  0  0
 24 19  4  0  0  0  0
 22 25  1  0  0  0  0
M  END
> <From> 
www.bindingDB.org

> <BindingDB Reactant_set_id>
50302320

> <Ligand InChI>
InChI=1S/C19H17N3O2S/c1-12-7-9-14(10-8-12)21-19(24)22-18-15(17(20)23)11-16(25-18)13-5-3-2-4-6-13/h2-11H,1H3,(H2,20,23)(H2,21,22,24)

> <Ligand InChI Key>
DBIAKDYDOUVVHQ-UHFFFAOYSA-N

> <BindingDB MonomerID>
50066087

> <BindingDB Ligand Name>
CHEMBL3402934

> <Target Name Assigned by Curator or DataSource>
DNA gyrase subunit B

> <Target Source Organism According to Curator or DataSource>


> <Ki (nM)>


> <IC50 (nM)>
 23950

> <Kd (nM)>


> <EC50 (nM)>


> <kon (M-1-s-1)>


> <koff (s-1)>


> <pH>


> <Temp C>
25.00

> <Curation/DataSource>
ChEMBL

> <Article DOI>
10.1016/j.bmc.2015.02.032

> <PMID>
25766629

> <PubChem AID>


> <Patent Number>


> <Authors>
Saxena, S; Samala, G; Renuka, J; Sridevi, JP; Yogeeswari, P; Sriram, D

> <Institution>
Birla Institute of Technology&amp; Science-Pilani

> <Link to Ligand in BindingDB>
http://www.bindingdb.org/bind/chemsearch/marvin/MolStructure.jsp?monomerid=50066087

> <Link to Ligand-Target Pair in BindingDB>
http://www.bindingdb.org/jsp/dbsearch/PrimarySearch_ki.jsp?energyterm=kJ/mole&tag=pol&polymerid=50006452&target=DNA+gyrase+subunit+B&column=ki&startPg=0&Increment=50&submit=Search

> <Link to Ligand-Target Pair in BindingDB>
http://www.bindingdb.org/jsp/dbsearch/PrimarySearch_ki.jsp?energyterm=kJ/mole&tag=r21&monomerid=50066087&enzyme=DNA+gyrase+subunit+B&column=ki&startPg=0&Increment=50&submit=Search

> <Ligand HET ID in PDB>


> <PDB ID(s) for Ligand-Target Complex>


> <PubChem CID>
118729460

> <PubChem SID>
313071612

> <ChEBI ID of Ligand>


> <ChEMBL ID of Ligand>


> <DrugBank ID of Ligand>


> <IUPHAR_GRAC ID of Ligand>


> <KEGG ID of Ligand>


> <ZINC ID of Ligand>


> <Number of Protein Chains in Target (>1 implies a multichain complex)>
1

> <BindingDB Target Chain Sequence>
MAAQKNNAPKEYGADSITILEGLEAVRKRPGMYIGSTGERGLHHLIWEVVDNAVDEAMAGFATRVDVKIHADGSVEVRDDGRGIPVEMHATGMPTIDVVMTQLHAGGKFDGETYAVSGGLHGVGVSVVNALSTRLEATVLRDGYEWFQYYDRSVPGKLKQGGETKETGTTIRFWADPEIFETTDYNFETVARRLQEMAFLNKGLTIELTDERVTAEEVVDDVVKDTAEAPKTADEKAAEATGPSKVKHRVFHYPGGLVDYVKHINRTKTPIQQSIIDFDGKGPGHEVEIAMQWNAGYSESVHTFANTINTHEGGTHEEGFRAALTSVVNRYAKDKKLLKDKDPNLTGDDIREGLAAVISVKVAEPQFEGQTKTKLGNTEVKSFVQKICNEQLQHWFEANPAEAKTVVNKAVSSAQARIAARKARELVRRKSATDIGGLPGKLADCRSTDPSKSELYVVEGDSAGGSAKSGRDSMFQAILPLRGKIINVEKARIDRVLKNTEVQSIITALGTGIHDEFDISKLRYHKIVLMADADVDGQHISTLLLTLLFRFMKPLVENGHIFLAQPPLYKLKWQRSEPEFAYSDRERDGLLEAGRAAGKKINVDDGIQRYKGLGEMDAKELWETTMDPSVRVLRQVTLDDAAAADELFSILMGEDVEARRSFITRNAKDVRFLDV

> <PDB ID(s) of Target Chain>
4BAE

> <UniProt (SwissProt) Recommended Name of Target Chain>
DNA gyrase subunit B

> <UniProt (SwissProt) Entry Name of Target Chain>
GYRB_MYCSM

> <UniProt (SwissProt) Primary ID of Target Chain>
P0C559

> <UniProt (SwissProt) Secondary ID(s) of Target Chain>
P48355,Q59555

> <UniProt (SwissProt) Alternative ID(s) of Target Chain>


> <UniProt (TrEMBL) Submitted Name of Target Chain>


> <UniProt (TrEMBL) Entry Name of Target Chain>


> <UniProt (TrEMBL) Primary ID of Target Chain>


> <UniProt (TrEMBL) Secondary ID(s) of Target Chain>


> <UniProt (TrEMBL) Alternative ID(s) of Target Chain>


$$$$

  Mrv0541 11241418562D          

 31 34  0  0  0  0            999 V2000
   10.7414   -0.5208    0.0000 N   0  0  0  0  0  0  0  0  0  0  0  0
   11.5663   -0.5208    0.0000 C   0  0  0  0  0  0  0  0  0  0  0  0
   11.8231    0.2700    0.0000 C   0  0  0  0  0  0  0  0  0  0  0  0
   11.1539    0.7500    0.0000 S   0  0  0  0  0  0  0  0  0  0  0  0
   10.4888    0.2700    0.0000 C   0  0  0  0  0  0  0  0  0  0  0  0
   12.5461    0.6628    0.0000 C   0  0  0  0  0  0  0  0  0  0  0  0
   12.5623    1.4879    0.0000 O   0  0  0  0  0  0  0  0  0  0  0  0
   13.2524    0.2393    0.0000 O   0  0  0  0  0  0  0  0  0  0  0  0
   13.9748    0.6409    0.0000 C   0  0  0  0  0  0  0  0  0  0  0  0
   14.6809    0.2091    0.0000 C   0  0  0  0  0  0  0  0  0  0  0  0
    9.7669    0.6698    0.0000 C   0  0  0  0  0  0  0  0  0  0  0  0
    9.7561    1.4883    0.0000 C   0  0  0  0  0  0  0  0  0  0  0  0
    9.0357    1.8879    0.0000 C   0  0  0  0  0  0  0  0  0  0  0  0
    8.3273    1.4707    0.0000 C   0  0  0  0  0  0  0  0  0  0  0  0
    8.3437    0.6416    0.0000 C   0  0  0  0  0  0  0  0  0  0  0  0
    9.0646    0.2382    0.0000 C   0  0  0  0  0  0  0  0  0  0  0  0
   12.0503   -1.1889    0.0000 N   0  0  0  0  0  0  0  0  0  0  0  0
   11.6384   -1.9084    0.0000 C   0  0  0  0  0  0  0  0  0  0  0  0
   12.0525   -2.6177    0.0000 C   0  0  0  0  0  0  0  0  0  0  0  0
   12.8778   -2.6161    0.0000 C   0  0  0  0  0  0  0  0  0  0  0  0
   13.2874   -1.8989    0.0000 C   0  0  0  0  0  0  0  0  0  0  0  0
   12.8717   -1.1833    0.0000 C   0  0  0  0  0  0  0  0  0  0  0  0
   13.2927   -3.3292    0.0000 N   0  0  0  0  0  0  0  0  0  0  0  0
   14.1177   -3.3264    0.0000 C   0  0  0  0  0  0  0  0  0  0  0  0
   14.5325   -4.0395    0.0000 C   0  0  0  0  0  0  0  0  0  0  0  0
   14.1209   -4.7533    0.0000 C   0  0  0  0  0  0  0  0  0  0  0  0
   14.5351   -5.4658    0.0000 C   0  0  0  0  0  0  0  0  0  0  0  0
   15.3610   -5.4635    0.0000 C   0  0  0  0  0  0  0  0  0  0  0  0
   15.7708   -4.7427    0.0000 C   0  0  0  0  0  0  0  0  0  0  0  0
   15.3543   -4.0330    0.0000 C   0  0  0  0  0  0  0  0  0  0  0  0
   15.7768   -6.1760    0.0000 F   0  0  0  0  0  0  0  0  0  0  0  0
  1  2  1  0  0  0  0
  2  3  2  0  0  0  0
  3  4  1  0  0  0  0
  4  5  1  0  0  0  0
  5  1  2  0  0  0  0
  3  6  1  0  0  0  0
  6  7  2  0  0  0  0
  6  8  1  0  0  0  0
  8  9  1  0  0  0  0
  9 10  1  0  0  0  0
  5 11  1  0  0  0  0
 11 12  2  0  0  0  0
 12 13  1  0  0  0  0
 13 14  2  0  0  0  0
 14 15  1  0  0  0  0
 15 16  2  0  0  0  0
 16 11  1  0  0  0  0
  2 17  1  0  0  0  0
 17 18  1  0  0  0  0
 17 22  1  0  0  0  0
 18 19  1  0  0  0  0
 19 20  1  0  0  0  0
 20 21  1  0  0  0  0
 21 22  1  0  0  0  0
 20 23  1  0  0  0  0
 23 24  1  0  0  0  0
 24 25  1  0  0  0  0
 25 26  2  0  0  0  0
 26 27  1  0  0  0  0
 27 28  2  0  0  0  0
 28 29  1  0  0  0  0
 29 30  2  0  0  0  0
 30 25  1  0  0  0  0
 28 31  1  0  0  0  0
M  END
> <From> 
www.bindingDB.org

> <BindingDB Reactant_set_id>
50369972

> <Ligand InChI>
InChI=1S/C24H26FN3O2S/c1-2-30-24(29)21-22(27-23(31-21)18-6-4-3-5-7-18)28-14-12-20(13-15-28)26-16-17-8-10-19(25)11-9-17/h3-11,20,26H,2,12-16H2,1H3

> <Ligand InChI Key>
MMQRGBSSXPYEFJ-UHFFFAOYSA-N

> <BindingDB MonomerID>
50443325

> <BindingDB Ligand Name>
CHEMBL3085863

> <Target Name Assigned by Curator or DataSource>
DNA gyrase subunit B

> <Target Source Organism According to Curator or DataSource>


> <Ki (nM)>


> <IC50 (nM)>
 24000

> <Kd (nM)>


> <EC50 (nM)>


> <kon (M-1-s-1)>


> <koff (s-1)>


> <pH>


> <Temp C>


> <Curation/DataSource>
ChEMBL

> <Article DOI>
10.1016/j.bmc.2014.06.041

> <PMID>
25129171

> <PubChem AID>


> <Patent Number>


> <Authors>
Renuka, J; Reddy, KI; Srihari, K; Jeankumar, VU; Shravan, M; Sridevi, JP; Yogeeswari, P; Babu, KS; Sriram, D

> <Institution>
Institute of Technology&amp; Science-Pilani

> <Link to Ligand in BindingDB>
http://www.bindingdb.org/bind/chemsearch/marvin/MolStructure.jsp?monomerid=50443325

> <Link to Ligand-Target Pair in BindingDB>
http://www.bindingdb.org/jsp/dbsearch/PrimarySearch_ki.jsp?energyterm=kJ/mole&tag=pol&polymerid=50006452&target=DNA+gyrase+subunit+B&column=ki&startPg=0&Increment=50&submit=Search

> <Link to Ligand-Target Pair in BindingDB>
http://www.bindingdb.org/jsp/dbsearch/PrimarySearch_ki.jsp?energyterm=kJ/mole&tag=r21&monomerid=50443325&enzyme=DNA+gyrase+subunit+B&column=ki&startPg=0&Increment=50&submit=Search

> <Ligand HET ID in PDB>


> <PDB ID(s) for Ligand-Target Complex>


> <PubChem CID>
73977751

> <PubChem SID>
194941221

> <ChEBI ID of Ligand>


> <ChEMBL ID of Ligand>
CHEMBL3085863

> <DrugBank ID of Ligand>


> <IUPHAR_GRAC ID of Ligand>


> <KEGG ID of Ligand>


> <ZINC ID of Ligand>


> <Number of Protein Chains in Target (>1 implies a multichain complex)>
1

> <BindingDB Target Chain Sequence>
MAAQKNNAPKEYGADSITILEGLEAVRKRPGMYIGSTGERGLHHLIWEVVDNAVDEAMAGFATRVDVKIHADGSVEVRDDGRGIPVEMHATGMPTIDVVMTQLHAGGKFDGETYAVSGGLHGVGVSVVNALSTRLEATVLRDGYEWFQYYDRSVPGKLKQGGETKETGTTIRFWADPEIFETTDYNFETVARRLQEMAFLNKGLTIELTDERVTAEEVVDDVVKDTAEAPKTADEKAAEATGPSKVKHRVFHYPGGLVDYVKHINRTKTPIQQSIIDFDGKGPGHEVEIAMQWNAGYSESVHTFANTINTHEGGTHEEGFRAALTSVVNRYAKDKKLLKDKDPNLTGDDIREGLAAVISVKVAEPQFEGQTKTKLGNTEVKSFVQKICNEQLQHWFEANPAEAKTVVNKAVSSAQARIAARKARELVRRKSATDIGGLPGKLADCRSTDPSKSELYVVEGDSAGGSAKSGRDSMFQAILPLRGKIINVEKARIDRVLKNTEVQSIITALGTGIHDEFDISKLRYHKIVLMADADVDGQHISTLLLTLLFRFMKPLVENGHIFLAQPPLYKLKWQRSEPEFAYSDRERDGLLEAGRAAGKKINVDDGIQRYKGLGEMDAKELWETTMDPSVRVLRQVTLDDAAAADELFSILMGEDVEARRSFITRNAKDVRFLDV

> <PDB ID(s) of Target Chain>
4BAE

> <UniProt (SwissProt) Recommended Name of Target Chain>
DNA gyrase subunit B

> <UniProt (SwissProt) Entry Name of Target Chain>
GYRB_MYCSM

> <UniProt (SwissProt) Primary ID of Target Chain>
P0C559

> <UniProt (SwissProt) Secondary ID(s) of Target Chain>
P48355,Q59555

> <UniProt (SwissProt) Alternative ID(s) of Target Chain>


> <UniProt (TrEMBL) Submitted Name of Target Chain>


> <UniProt (TrEMBL) Entry Name of Target Chain>


> <UniProt (TrEMBL) Primary ID of Target Chain>


> <UniProt (TrEMBL) Secondary ID(s) of Target Chain>


> <UniProt (TrEMBL) Alternative ID(s) of Target Chain>


$$$$

  Mrv0541 11241418562D          

 31 34  0  0  0  0            999 V2000
   10.7414   -0.5208    0.0000 N   0  0  0  0  0  0  0  0  0  0  0  0
   11.5663   -0.5208    0.0000 C   0  0  0  0  0  0  0  0  0  0  0  0
   11.8231    0.2700    0.0000 C   0  0  0  0  0  0  0  0  0  0  0  0
   11.1539    0.7500    0.0000 S   0  0  0  0  0  0  0  0  0  0  0  0
   10.4888    0.2700    0.0000 C   0  0  0  0  0  0  0  0  0  0  0  0
   12.5461    0.6628    0.0000 C   0  0  0  0  0  0  0  0  0  0  0  0
   12.5623    1.4879    0.0000 O   0  0  0  0  0  0  0  0  0  0  0  0
   13.2524    0.2393    0.0000 O   0  0  0  0  0  0  0  0  0  0  0  0
   13.9748    0.6409    0.0000 C   0  0  0  0  0  0  0  0  0  0  0  0
   14.6809    0.2091    0.0000 C   0  0  0  0  0  0  0  0  0  0  0  0
    9.7669    0.6698    0.0000 C   0  0  0  0  0  0  0  0  0  0  0  0
    9.7561    1.4883    0.0000 C   0  0  0  0  0  0  0  0  0  0  0  0
    9.0357    1.8879    0.0000 C   0  0  0  0  0  0  0  0  0  0  0  0
    8.3273    1.4707    0.0000 C   0  0  0  0  0  0  0  0  0  0  0  0
    8.3437    0.6416    0.0000 C   0  0  0  0  0  0  0  0  0  0  0  0
    9.0646    0.2382    0.0000 C   0  0  0  0  0  0  0  0  0  0  0  0
   12.0503   -1.1889    0.0000 N   0  0  0  0  0  0  0  0  0  0  0  0
   11.6384   -1.9084    0.0000 C   0  0  0  0  0  0  0  0  0  0  0  0
   12.0525   -2.6177    0.0000 C   0  0  0  0  0  0  0  0  0  0  0  0
   12.8778   -2.6161    0.0000 C   0  0  0  0  0  0  0  0  0  0  0  0
   13.2874   -1.8989    0.0000 C   0  0  0  0  0  0  0  0  0  0  0  0
   12.8717   -1.1833    0.0000 C   0  0  0  0  0  0  0  0  0  0  0  0
   13.2927   -3.3292    0.0000 N   0  0  0  0  0  0  0  0  0  0  0  0
   14.1177   -3.3264    0.0000 C   0  0  0  0  0  0  0  0  0  0  0  0
   14.5325   -4.0395    0.0000 C   0  0  0  0  0  0  0  0  0  0  0  0
   14.1209   -4.7533    0.0000 C   0  0  0  0  0  0  0  0  0  0  0  0
   14.5351   -5.4658    0.0000 C   0  0  0  0  0  0  0  0  0  0  0  0
   15.3610   -5.4635    0.0000 C   0  0  0  0  0  0  0  0  0  0  0  0
   15.7708   -4.7427    0.0000 C   0  0  0  0  0  0  0  0  0  0  0  0
   15.3543   -4.0330    0.0000 C   0  0  0  0  0  0  0  0  0  0  0  0
   15.7768   -6.1760    0.0000 F   0  0  0  0  0  0  0  0  0  0  0  0
  1  2  1  0  0  0  0
  2  3  2  0  0  0  0
  3  4  1  0  0  0  0
  4  5  1  0  0  0  0
  5  1  2  0  0  0  0
  3  6  1  0  0  0  0
  6  7  2  0  0  0  0
  6  8  1  0  0  0  0
  8  9  1  0  0  0  0
  9 10  1  0  0  0  0
  5 11  1  0  0  0  0
 11 12  2  0  0  0  0
 12 13  1  0  0  0  0
 13 14  2  0  0  0  0
 14 15  1  0  0  0  0
 15 16  2  0  0  0  0
 16 11  1  0  0  0  0
  2 17  1  0  0  0  0
 17 18  1  0  0  0  0
 17 22  1  0  0  0  0
 18 19  1  0  0  0  0
 19 20  1  0  0  0  0
 20 21  1  0  0  0  0
 21 22  1  0  0  0  0
 20 23  1  0  0  0  0
 23 24  1  0  0  0  0
 24 25  1  0  0  0  0
 25 26  2  0  0  0  0
 26 27  1  0  0  0  0
 27 28  2  0  0  0  0
 28 29  1  0  0  0  0
 29 30  2  0  0  0  0
 30 25  1  0  0  0  0
 28 31  1  0  0  0  0
M  END
> <From> 
www.bindingDB.org

> <BindingDB Reactant_set_id>
51083547

> <Ligand InChI>
InChI=1S/C24H26FN3O2S/c1-2-30-24(29)21-22(27-23(31-21)18-6-4-3-5-7-18)28-14-12-20(13-15-28)26-16-17-8-10-19(25)11-9-17/h3-11,20,26H,2,12-16H2,1H3

> <Ligand InChI Key>
MMQRGBSSXPYEFJ-UHFFFAOYSA-N

> <BindingDB MonomerID>
50443325

> <BindingDB Ligand Name>
CHEMBL3085863

> <Target Name Assigned by Curator or DataSource>
DNA gyrase subunit B

> <Target Source Organism According to Curator or DataSource>


> <Ki (nM)>


> <IC50 (nM)>
 24000

> <Kd (nM)>


> <EC50 (nM)>


> <kon (M-1-s-1)>


> <koff (s-1)>


> <pH>


> <Temp C>


> <Curation/DataSource>
ChEMBL

> <Article DOI>
10.1016/j.ejmech.2013.09.025

> <PMID>
24148991

> <PubChem AID>


> <Patent Number>


> <Authors>
Jeankumar, VU; Renuka, J; Santosh, P; Soni, V; Sridevi, JP; Suryadevara, P; Yogeeswari, P; Sriram, D

> <Institution>
Birla Institute of Technology&amp; Science-Pilani

> <Link to Ligand in BindingDB>
http://www.bindingdb.org/bind/chemsearch/marvin/MolStructure.jsp?monomerid=50443325

> <Link to Ligand-Target Pair in BindingDB>
http://www.bindingdb.org/jsp/dbsearch/PrimarySearch_ki.jsp?energyterm=kJ/mole&tag=pol&polymerid=50006452&target=DNA+gyrase+subunit+B&column=ki&startPg=0&Increment=50&submit=Search

> <Link to Ligand-Target Pair in BindingDB>
http://www.bindingdb.org/jsp/dbsearch/PrimarySearch_ki.jsp?energyterm=kJ/mole&tag=r21&monomerid=50443325&enzyme=DNA+gyrase+subunit+B&column=ki&startPg=0&Increment=50&submit=Search

> <Ligand HET ID in PDB>


> <PDB ID(s) for Ligand-Target Complex>


> <PubChem CID>
73977751

> <PubChem SID>
194941221

> <ChEBI ID of Ligand>


> <ChEMBL ID of Ligand>
CHEMBL3085863

> <DrugBank ID of Ligand>


> <IUPHAR_GRAC ID of Ligand>


> <KEGG ID of Ligand>


> <ZINC ID of Ligand>


> <Number of Protein Chains in Target (>1 implies a multichain complex)>
1

> <BindingDB Target Chain Sequence>
MAAQKNNAPKEYGADSITILEGLEAVRKRPGMYIGSTGERGLHHLIWEVVDNAVDEAMAGFATRVDVKIHADGSVEVRDDGRGIPVEMHATGMPTIDVVMTQLHAGGKFDGETYAVSGGLHGVGVSVVNALSTRLEATVLRDGYEWFQYYDRSVPGKLKQGGETKETGTTIRFWADPEIFETTDYNFETVARRLQEMAFLNKGLTIELTDERVTAEEVVDDVVKDTAEAPKTADEKAAEATGPSKVKHRVFHYPGGLVDYVKHINRTKTPIQQSIIDFDGKGPGHEVEIAMQWNAGYSESVHTFANTINTHEGGTHEEGFRAALTSVVNRYAKDKKLLKDKDPNLTGDDIREGLAAVISVKVAEPQFEGQTKTKLGNTEVKSFVQKICNEQLQHWFEANPAEAKTVVNKAVSSAQARIAARKARELVRRKSATDIGGLPGKLADCRSTDPSKSELYVVEGDSAGGSAKSGRDSMFQAILPLRGKIINVEKARIDRVLKNTEVQSIITALGTGIHDEFDISKLRYHKIVLMADADVDGQHISTLLLTLLFRFMKPLVENGHIFLAQPPLYKLKWQRSEPEFAYSDRERDGLLEAGRAAGKKINVDDGIQRYKGLGEMDAKELWETTMDPSVRVLRQVTLDDAAAADELFSILMGEDVEARRSFITRNAKDVRFLDV

> <PDB ID(s) of Target Chain>
4BAE

> <UniProt (SwissProt) Recommended Name of Target Chain>
DNA gyrase subunit B

> <UniProt (SwissProt) Entry Name of Target Chain>
GYRB_MYCSM

> <UniProt (SwissProt) Primary ID of Target Chain>
P0C559

> <UniProt (SwissProt) Secondary ID(s) of Target Chain>
P48355,Q59555

> <UniProt (SwissProt) Alternative ID(s) of Target Chain>


> <UniProt (TrEMBL) Submitted Name of Target Chain>


> <UniProt (TrEMBL) Entry Name of Target Chain>


> <UniProt (TrEMBL) Primary ID of Target Chain>


> <UniProt (TrEMBL) Secondary ID(s) of Target Chain>


> <UniProt (TrEMBL) Alternative ID(s) of Target Chain>


$$$$

  Mrv0541 11171616332D          

 32 35  0  0  0  0            999 V2000
   13.9612   -7.7030    0.0000 O   0  0  0  0  0  0  0  0  0  0  0  0
   14.4461   -7.0355    0.0000 C   0  0  0  0  0  0  0  0  0  0  0  0
   13.9612   -6.3681    0.0000 C   0  0  0  0  0  0  0  0  0  0  0  0
   13.1766   -6.6230    0.0000 C   0  0  0  0  0  0  0  0  0  0  0  0
   13.1766   -7.4480    0.0000 C   0  0  0  0  0  0  0  0  0  0  0  0
   12.4621   -6.2105    0.0000 C   0  0  0  0  0  0  0  0  0  0  0  0
   11.7477   -6.6230    0.0000 C   0  0  0  0  0  0  0  0  0  0  0  0
   11.7477   -7.4480    0.0000 C   0  0  0  0  0  0  0  0  0  0  0  0
   12.4621   -7.8605    0.0000 C   0  0  0  0  0  0  0  0  0  0  0  0
   15.2711   -7.0355    0.0000 C   0  0  0  0  0  0  0  0  0  0  0  0
   15.6836   -7.7500    0.0000 O   0  0  0  0  0  0  0  0  0  0  0  0
   15.6836   -6.3211    0.0000 O   0  0  0  0  0  0  0  0  0  0  0  0
   11.0332   -6.2105    0.0000 N   0  0  0  0  0  0  0  0  0  0  0  0
   10.3187   -6.6230    0.0000 C   0  0  0  0  0  0  0  0  0  0  0  0
    9.6043   -6.2105    0.0000 C   0  0  0  0  0  0  0  0  0  0  0  0
    9.6043   -5.3855    0.0000 N   0  0  0  0  0  0  0  0  0  0  0  0
   10.3187   -4.9730    0.0000 C   0  0  0  0  0  0  0  0  0  0  0  0
   11.0332   -5.3855    0.0000 C   0  0  0  0  0  0  0  0  0  0  0  0
    8.8898   -4.9730    0.0000 C   0  0  0  0  0  0  0  0  0  0  0  0
    8.1752   -5.3855    0.0000 C   0  0  0  0  0  0  0  0  0  0  0  0
    8.1752   -6.2105    0.0000 C   0  0  0  0  0  0  0  0  0  0  0  0
    7.4608   -6.6230    0.0000 C   0  0  0  0  0  0  0  0  0  0  0  0
    6.7463   -6.2105    0.0000 C   0  0  0  0  0  0  0  0  0  0  0  0
    6.7463   -5.3855    0.0000 C   0  0  0  0  0  0  0  0  0  0  0  0
    7.4608   -4.9730    0.0000 C   0  0  0  0  0  0  0  0  0  0  0  0
    8.8898   -4.1480    0.0000 O   0  0  0  0  0  0  0  0  0  0  0  0
    6.0318   -6.6230    0.0000 O   0  0  0  0  0  0  0  0  0  0  0  0
    5.3174   -6.2105    0.0000 C   0  0  0  0  0  0  0  0  0  0  0  0
    7.4608   -4.1480    0.0000 F   0  0  0  0  0  0  0  0  0  0  0  0
    8.8898   -6.6230    0.0000 F   0  0  0  0  0  0  0  0  0  0  0  0
   16.5087   -6.3211    0.0000 C   0  0  0  0  0  0  0  0  0  0  0  0
   16.9212   -5.6066    0.0000 C   0  0  0  0  0  0  0  0  0  0  0  0
  1  2  4  0  0  0  0
  2  3  4  0  0  0  0
  3  4  4  0  0  0  0
  4  5  4  0  0  0  0
  1  5  4  0  0  0  0
  6  7  4  0  0  0  0
  7  8  4  0  0  0  0
  8  9  4  0  0  0  0
  5  9  4  0  0  0  0
  4  6  4  0  0  0  0
 10 11  2  0  0  0  0
 10 12  1  0  0  0  0
  2 10  1  0  0  0  0
 13 14  1  0  0  0  0
 14 15  1  0  0  0  0
 15 16  1  0  0  0  0
 16 17  1  0  0  0  0
 17 18  1  0  0  0  0
 13 18  1  0  0  0  0
 19 20  1  0  0  0  0
 20 21  4  0  0  0  0
 21 22  4  0  0  0  0
 22 23  4  0  0  0  0
 23 24  4  0  0  0  0
 24 25  4  0  0  0  0
 20 25  4  0  0  0  0
 19 26  2  0  0  0  0
 27 28  1  0  0  0  0
 23 27  1  0  0  0  0
 25 29  1  0  0  0  0
 21 30  1  0  0  0  0
 16 19  1  0  0  0  0
  7 13  1  0  0  0  0
 31 32  1  0  0  0  0
 12 31  1  0  0  0  0
M  END
> <From> 
www.bindingDB.org

> <BindingDB Reactant_set_id>
50369861

> <Ligand InChI>
InChI=1S/C23H22F2N2O5/c1-3-31-23(29)20-11-14-10-15(4-5-19(14)32-20)26-6-8-27(9-7-26)22(28)21-17(24)12-16(30-2)13-18(21)25/h4-5,10-13H,3,6-9H2,1-2H3

> <Ligand InChI Key>
PILUERPGSZPSNL-UHFFFAOYSA-N

> <BindingDB MonomerID>
50100640

> <BindingDB Ligand Name>
CHEMBL3323255

> <Target Name Assigned by Curator or DataSource>
DNA gyrase subunit B

> <Target Source Organism According to Curator or DataSource>


> <Ki (nM)>


> <IC50 (nM)>
 24210

> <Kd (nM)>


> <EC50 (nM)>


> <kon (M-1-s-1)>


> <koff (s-1)>


> <pH>


> <Temp C>


> <Curation/DataSource>
ChEMBL

> <Article DOI>
10.1016/j.bmc.2014.06.041

> <PMID>
25129171

> <PubChem AID>


> <Patent Number>


> <Authors>
Renuka, J; Reddy, KI; Srihari, K; Jeankumar, VU; Shravan, M; Sridevi, JP; Yogeeswari, P; Babu, KS; Sriram, D

> <Institution>
Institute of Technology&amp; Science-Pilani

> <Link to Ligand in BindingDB>
http://www.bindingdb.org/bind/chemsearch/marvin/MolStructure.jsp?monomerid=50100640

> <Link to Ligand-Target Pair in BindingDB>
http://www.bindingdb.org/jsp/dbsearch/PrimarySearch_ki.jsp?energyterm=kJ/mole&tag=pol&polymerid=50006452&target=DNA+gyrase+subunit+B&column=ki&startPg=0&Increment=50&submit=Search

> <Link to Ligand-Target Pair in BindingDB>
http://www.bindingdb.org/jsp/dbsearch/PrimarySearch_ki.jsp?energyterm=kJ/mole&tag=r21&monomerid=50100640&enzyme=DNA+gyrase+subunit+B&column=ki&startPg=0&Increment=50&submit=Search

> <Ligand HET ID in PDB>


> <PDB ID(s) for Ligand-Target Complex>


> <PubChem CID>
118710636

> <PubChem SID>
318490749

> <ChEBI ID of Ligand>


> <ChEMBL ID of Ligand>


> <DrugBank ID of Ligand>


> <IUPHAR_GRAC ID of Ligand>


> <KEGG ID of Ligand>


> <ZINC ID of Ligand>


> <Number of Protein Chains in Target (>1 implies a multichain complex)>
1

> <BindingDB Target Chain Sequence>
MAAQKNNAPKEYGADSITILEGLEAVRKRPGMYIGSTGERGLHHLIWEVVDNAVDEAMAGFATRVDVKIHADGSVEVRDDGRGIPVEMHATGMPTIDVVMTQLHAGGKFDGETYAVSGGLHGVGVSVVNALSTRLEATVLRDGYEWFQYYDRSVPGKLKQGGETKETGTTIRFWADPEIFETTDYNFETVARRLQEMAFLNKGLTIELTDERVTAEEVVDDVVKDTAEAPKTADEKAAEATGPSKVKHRVFHYPGGLVDYVKHINRTKTPIQQSIIDFDGKGPGHEVEIAMQWNAGYSESVHTFANTINTHEGGTHEEGFRAALTSVVNRYAKDKKLLKDKDPNLTGDDIREGLAAVISVKVAEPQFEGQTKTKLGNTEVKSFVQKICNEQLQHWFEANPAEAKTVVNKAVSSAQARIAARKARELVRRKSATDIGGLPGKLADCRSTDPSKSELYVVEGDSAGGSAKSGRDSMFQAILPLRGKIINVEKARIDRVLKNTEVQSIITALGTGIHDEFDISKLRYHKIVLMADADVDGQHISTLLLTLLFRFMKPLVENGHIFLAQPPLYKLKWQRSEPEFAYSDRERDGLLEAGRAAGKKINVDDGIQRYKGLGEMDAKELWETTMDPSVRVLRQVTLDDAAAADELFSILMGEDVEARRSFITRNAKDVRFLDV

> <PDB ID(s) of Target Chain>
4BAE

> <UniProt (SwissProt) Recommended Name of Target Chain>
DNA gyrase subunit B

> <UniProt (SwissProt) Entry Name of Target Chain>
GYRB_MYCSM

> <UniProt (SwissProt) Primary ID of Target Chain>
P0C559

> <UniProt (SwissProt) Secondary ID(s) of Target Chain>
P48355,Q59555

> <UniProt (SwissProt) Alternative ID(s) of Target Chain>


> <UniProt (TrEMBL) Submitted Name of Target Chain>


> <UniProt (TrEMBL) Entry Name of Target Chain>


> <UniProt (TrEMBL) Primary ID of Target Chain>


> <UniProt (TrEMBL) Secondary ID(s) of Target Chain>


> <UniProt (TrEMBL) Alternative ID(s) of Target Chain>


$$$$

  SciTegic12211722132D

 30 34  0  0  0  0            999 V2000
    8.0251   -6.6352    0.0000 C   0  0
    7.3131   -6.2349    0.0000 O   0  0
    8.8051   -5.4067    0.0000 N   0  0
    8.7270   -6.2185    0.0000 C   0  0
    9.4800   -6.5398    0.0000 C   0  0
   10.0172   -5.9280    0.0000 C   0  0
   10.8343   -5.9179    0.0000 C   0  0
   11.2347   -5.2059    0.0000 C   0  0
   10.8179   -4.5040    0.0000 C   0  0
   10.0008   -4.5141    0.0000 C   0  0
    9.6005   -5.2261    0.0000 C   0  0
    8.0352   -7.4523    0.0000 N   0  0
    7.3333   -7.8691    0.0000 C   0  0
    7.3393   -8.6862    0.0000 C   0  0
    8.0554   -9.0866    0.0000 N   0  0
    8.7573   -8.6698    0.0000 C   0  0
    8.7472   -7.8527    0.0000 C   0  0
    8.0816  -11.5379    0.0000 N   0  0
    8.7835  -11.1211    0.0000 C   0  0
    8.7776  -10.3040    0.0000 C   0  0
    8.0614   -9.9037    0.0000 C   0  0
    7.3595  -10.3204    0.0000 C   0  0
    6.6475   -9.9201    0.0000 C   0  0
    5.9456  -10.3368    0.0000 C   0  0
    5.9516  -11.1539    0.0000 C   0  0
    6.6677  -11.5543    0.0000 C   0  0
    7.3696  -11.1375    0.0000 C   0  0
    5.2538  -11.5707    0.0000 Cl  0  0
   12.0516   -5.1965    0.0000 O   0  0
   12.4518   -4.4841    0.0000 C   0  0
  1  2  2  0
  3  4  1  0
  4  5  2  0
  5  6  1  0
  6  7  1  0
  7  8  2  0
  8  9  1  0
  9 10  2  0
 10 11  1  0
  3 11  1  0
  6 11  2  0
  1  4  1  0
 12 13  1  0
 13 14  1  0
 14 15  1  0
 15 16  1  0
 16 17  1  0
 12 17  1  0
 18 19  2  0
 19 20  1  0
 20 21  2  0
 21 22  1  0
 22 23  2  0
 23 24  1  0
 24 25  2  0
 25 26  1  0
 26 27  2  0
 18 27  1  0
 22 27  1  0
 25 28  1  0
 15 21  1  0
  1 12  1  0
 29 30  1  0
  8 29  1  0
M  END
> <From> 
www.bindingDB.org

> <BindingDB Reactant_set_id>
50528086

> <Ligand InChI>
InChI=1S/C23H21ClN4O2/c1-30-17-3-5-19-15(12-17)13-21(26-19)23(29)28-10-8-27(9-11-28)22-6-7-25-20-14-16(24)2-4-18(20)22/h2-7,12-14,26H,8-11H2,1H3

> <Ligand InChI Key>
GEOGGNNXGKSEPC-UHFFFAOYSA-N

> <BindingDB MonomerID>
50202230

> <BindingDB Ligand Name>
CHEMBL3935298

> <Target Name Assigned by Curator or DataSource>
DNA gyrase subunit B

> <Target Source Organism According to Curator or DataSource>


> <Ki (nM)>


> <IC50 (nM)>
 24300

> <Kd (nM)>


> <EC50 (nM)>


> <kon (M-1-s-1)>


> <koff (s-1)>


> <pH>


> <Temp C>


> <Curation/DataSource>
ChEMBL

> <Article DOI>
10.1016/j.ejmech.2016.06.042

> <PMID>
27371925

> <PubChem AID>


> <Patent Number>


> <Authors>
Jeankumar, VU; Reshma, RS; Vats, R; Janupally, R; Saxena, S; Yogeeswari, P; Sriram, D

> <Institution>
Birla Institute of Technology&amp; Science-Pilani

> <Link to Ligand in BindingDB>
http://www.bindingdb.org/bind/chemsearch/marvin/MolStructure.jsp?monomerid=50202230

> <Link to Ligand-Target Pair in BindingDB>
http://www.bindingdb.org/jsp/dbsearch/PrimarySearch_ki.jsp?energyterm=kJ/mole&tag=pol&polymerid=50006452&target=DNA+gyrase+subunit+B&column=ki&startPg=0&Increment=50&submit=Search

> <Link to Ligand-Target Pair in BindingDB>
http://www.bindingdb.org/jsp/dbsearch/PrimarySearch_ki.jsp?energyterm=kJ/mole&tag=r21&monomerid=50202230&enzyme=DNA+gyrase+subunit+B&column=ki&startPg=0&Increment=50&submit=Search

> <Ligand HET ID in PDB>


> <PDB ID(s) for Ligand-Target Complex>


> <PubChem CID>
134148678

> <PubChem SID>
375979598

> <ChEBI ID of Ligand>


> <ChEMBL ID of Ligand>


> <DrugBank ID of Ligand>


> <IUPHAR_GRAC ID of Ligand>


> <KEGG ID of Ligand>


> <ZINC ID of Ligand>


> <Number of Protein Chains in Target (>1 implies a multichain complex)>
1

> <BindingDB Target Chain Sequence>
MAAQKNNAPKEYGADSITILEGLEAVRKRPGMYIGSTGERGLHHLIWEVVDNAVDEAMAGFATRVDVKIHADGSVEVRDDGRGIPVEMHATGMPTIDVVMTQLHAGGKFDGETYAVSGGLHGVGVSVVNALSTRLEATVLRDGYEWFQYYDRSVPGKLKQGGETKETGTTIRFWADPEIFETTDYNFETVARRLQEMAFLNKGLTIELTDERVTAEEVVDDVVKDTAEAPKTADEKAAEATGPSKVKHRVFHYPGGLVDYVKHINRTKTPIQQSIIDFDGKGPGHEVEIAMQWNAGYSESVHTFANTINTHEGGTHEEGFRAALTSVVNRYAKDKKLLKDKDPNLTGDDIREGLAAVISVKVAEPQFEGQTKTKLGNTEVKSFVQKICNEQLQHWFEANPAEAKTVVNKAVSSAQARIAARKARELVRRKSATDIGGLPGKLADCRSTDPSKSELYVVEGDSAGGSAKSGRDSMFQAILPLRGKIINVEKARIDRVLKNTEVQSIITALGTGIHDEFDISKLRYHKIVLMADADVDGQHISTLLLTLLFRFMKPLVENGHIFLAQPPLYKLKWQRSEPEFAYSDRERDGLLEAGRAAGKKINVDDGIQRYKGLGEMDAKELWETTMDPSVRVLRQVTLDDAAAADELFSILMGEDVEARRSFITRNAKDVRFLDV

> <PDB ID(s) of Target Chain>
4BAE

> <UniProt (SwissProt) Recommended Name of Target Chain>
DNA gyrase subunit B

> <UniProt (SwissProt) Entry Name of Target Chain>
GYRB_MYCSM

> <UniProt (SwissProt) Primary ID of Target Chain>
P0C559

> <UniProt (SwissProt) Secondary ID(s) of Target Chain>
P48355,Q59555

> <UniProt (SwissProt) Alternative ID(s) of Target Chain>


> <UniProt (TrEMBL) Submitted Name of Target Chain>


> <UniProt (TrEMBL) Entry Name of Target Chain>


> <UniProt (TrEMBL) Primary ID of Target Chain>


> <UniProt (TrEMBL) Secondary ID(s) of Target Chain>


> <UniProt (TrEMBL) Alternative ID(s) of Target Chain>


$$$$

  Mrv0541 03201611132D          

 31 34  0  0  0  0            999 V2000
    9.9652  -17.2616    0.0000 O   0  0  0  0  0  0  0  0  0  0  0  0
   10.4458  -16.5920    0.0000 C   0  0  0  0  0  0  0  0  0  0  0  0
    9.9652  -15.9266    0.0000 C   0  0  0  0  0  0  0  0  0  0  0  0
    9.1764  -16.1795    0.0000 C   0  0  0  0  0  0  0  0  0  0  0  0
    9.1764  -17.0045    0.0000 C   0  0  0  0  0  0  0  0  0  0  0  0
    8.4647  -15.7670    0.0000 C   0  0  0  0  0  0  0  0  0  0  0  0
    7.7489  -16.1795    0.0000 C   0  0  0  0  0  0  0  0  0  0  0  0
    7.7489  -17.0045    0.0000 C   0  0  0  0  0  0  0  0  0  0  0  0
    8.4647  -17.4170    0.0000 C   0  0  0  0  0  0  0  0  0  0  0  0
   11.2708  -16.5920    0.0000 C   0  0  0  0  0  0  0  0  0  0  0  0
   11.6833  -17.3078    0.0000 O   0  0  0  0  0  0  0  0  0  0  0  0
   11.6833  -15.8761    0.0000 O   0  0  0  0  0  0  0  0  0  0  0  0
    7.0371  -15.7670    0.0000 N   0  0  0  0  0  0  0  0  0  0  0  0
    6.3213  -16.1795    0.0000 C   0  0  0  0  0  0  0  0  0  0  0  0
    5.6054  -15.7670    0.0000 C   0  0  0  0  0  0  0  0  0  0  0  0
    5.6054  -14.9420    0.0000 N   0  0  0  0  0  0  0  0  0  0  0  0
    6.3213  -14.5295    0.0000 C   0  0  0  0  0  0  0  0  0  0  0  0
    7.0371  -14.9420    0.0000 C   0  0  0  0  0  0  0  0  0  0  0  0
    4.8938  -14.5295    0.0000 C   0  0  0  0  0  0  0  0  0  0  0  0
    4.1779  -14.9420    0.0000 N   0  0  0  0  0  0  0  0  0  0  0  0
    4.8938  -13.7045    0.0000 S   0  0  0  0  0  0  0  0  0  0  0  0
    3.4620  -14.5295    0.0000 C   0  0  0  0  0  0  0  0  0  0  0  0
    2.7462  -14.9420    0.0000 C   0  0  0  0  0  0  0  0  0  0  0  0
    2.0344  -14.5295    0.0000 C   0  0  0  0  0  0  0  0  0  0  0  0
    2.0344  -13.7045    0.0000 C   0  0  0  0  0  0  0  0  0  0  0  0
    2.7462  -13.2920    0.0000 C   0  0  0  0  0  0  0  0  0  0  0  0
    3.4620  -13.7045    0.0000 C   0  0  0  0  0  0  0  0  0  0  0  0
    1.3186  -13.2920    0.0000 O   0  0  0  0  0  0  0  0  0  0  0  0
    0.6069  -13.7045    0.0000 C   0  0  0  0  0  0  0  0  0  0  0  0
   12.5083  -15.8761    0.0000 C   0  0  0  0  0  0  0  0  0  0  0  0
   12.9208  -15.1644    0.0000 C   0  0  0  0  0  0  0  0  0  0  0  0
  1  2  4  0  0  0  0
  2  3  4  0  0  0  0
  3  4  4  0  0  0  0
  4  5  4  0  0  0  0
  1  5  4  0  0  0  0
  6  7  4  0  0  0  0
  7  8  4  0  0  0  0
  8  9  4  0  0  0  0
  5  9  4  0  0  0  0
  4  6  4  0  0  0  0
 10 11  2  0  0  0  0
 10 12  1  0  0  0  0
  2 10  1  0  0  0  0
 13 14  1  0  0  0  0
 14 15  1  0  0  0  0
 15 16  1  0  0  0  0
 16 17  1  0  0  0  0
 17 18  1  0  0  0  0
 13 18  1  0  0  0  0
 19 20  1  0  0  0  0
 19 21  2  0  0  0  0
 22 23  4  0  0  0  0
 23 24  4  0  0  0  0
 24 25  4  0  0  0  0
 25 26  4  0  0  0  0
 26 27  4  0  0  0  0
 22 27  4  0  0  0  0
 28 29  1  0  0  0  0
 25 28  1  0  0  0  0
 20 22  1  0  0  0  0
 16 19  1  0  0  0  0
  7 13  1  0  0  0  0
 30 31  1  0  0  0  0
 12 30  1  0  0  0  0
M  END
> <From> 
www.bindingDB.org

> <BindingDB Reactant_set_id>
50254200

> <Ligand InChI>
InChI=1S/C23H25N3O4S/c1-3-29-22(27)21-15-16-14-18(6-9-20(16)30-21)25-10-12-26(13-11-25)23(31)24-17-4-7-19(28-2)8-5-17/h4-9,14-15H,3,10-13H2,1-2H3,(H,24,31)

> <Ligand InChI Key>
OWOVRMSXVBVBJJ-UHFFFAOYSA-N

> <BindingDB MonomerID>
50037088

> <BindingDB Ligand Name>
CHEMBL3355793

> <Target Name Assigned by Curator or DataSource>
DNA gyrase subunit B

> <Target Source Organism According to Curator or DataSource>


> <Ki (nM)>


> <IC50 (nM)>
 24390

> <Kd (nM)>


> <EC50 (nM)>


> <kon (M-1-s-1)>


> <koff (s-1)>


> <pH>


> <Temp C>


> <Curation/DataSource>
ChEMBL

> <Article DOI>
10.1016/j.bmc.2014.10.016

> <PMID>
25456076

> <PubChem AID>


> <Patent Number>


> <Authors>
Reddy, KI; Srihari, K; Renuka, J; Sree, KS; Chuppala, A; Jeankumar, VU; Sridevi, JP; Babu, KS; Yogeeswari, P; Sriram, D

> <Institution>
TBA

> <Link to Ligand in BindingDB>
http://www.bindingdb.org/bind/chemsearch/marvin/MolStructure.jsp?monomerid=50037088

> <Link to Ligand-Target Pair in BindingDB>
http://www.bindingdb.org/jsp/dbsearch/PrimarySearch_ki.jsp?energyterm=kJ/mole&tag=pol&polymerid=50006452&target=DNA+gyrase+subunit+B&column=ki&startPg=0&Increment=50&submit=Search

> <Link to Ligand-Target Pair in BindingDB>
http://www.bindingdb.org/jsp/dbsearch/PrimarySearch_ki.jsp?energyterm=kJ/mole&tag=r21&monomerid=50037088&enzyme=DNA+gyrase+subunit+B&column=ki&startPg=0&Increment=50&submit=Search

> <Ligand HET ID in PDB>


> <PDB ID(s) for Ligand-Target Complex>


> <PubChem CID>
118721093

> <PubChem SID>
313067062

> <ChEBI ID of Ligand>


> <ChEMBL ID of Ligand>


> <DrugBank ID of Ligand>


> <IUPHAR_GRAC ID of Ligand>


> <KEGG ID of Ligand>


> <ZINC ID of Ligand>


> <Number of Protein Chains in Target (>1 implies a multichain complex)>
1

> <BindingDB Target Chain Sequence>
MAAQKNNAPKEYGADSITILEGLEAVRKRPGMYIGSTGERGLHHLIWEVVDNAVDEAMAGFATRVDVKIHADGSVEVRDDGRGIPVEMHATGMPTIDVVMTQLHAGGKFDGETYAVSGGLHGVGVSVVNALSTRLEATVLRDGYEWFQYYDRSVPGKLKQGGETKETGTTIRFWADPEIFETTDYNFETVARRLQEMAFLNKGLTIELTDERVTAEEVVDDVVKDTAEAPKTADEKAAEATGPSKVKHRVFHYPGGLVDYVKHINRTKTPIQQSIIDFDGKGPGHEVEIAMQWNAGYSESVHTFANTINTHEGGTHEEGFRAALTSVVNRYAKDKKLLKDKDPNLTGDDIREGLAAVISVKVAEPQFEGQTKTKLGNTEVKSFVQKICNEQLQHWFEANPAEAKTVVNKAVSSAQARIAARKARELVRRKSATDIGGLPGKLADCRSTDPSKSELYVVEGDSAGGSAKSGRDSMFQAILPLRGKIINVEKARIDRVLKNTEVQSIITALGTGIHDEFDISKLRYHKIVLMADADVDGQHISTLLLTLLFRFMKPLVENGHIFLAQPPLYKLKWQRSEPEFAYSDRERDGLLEAGRAAGKKINVDDGIQRYKGLGEMDAKELWETTMDPSVRVLRQVTLDDAAAADELFSILMGEDVEARRSFITRNAKDVRFLDV

> <PDB ID(s) of Target Chain>
4BAE

> <UniProt (SwissProt) Recommended Name of Target Chain>
DNA gyrase subunit B

> <UniProt (SwissProt) Entry Name of Target Chain>
GYRB_MYCSM

> <UniProt (SwissProt) Primary ID of Target Chain>
P0C559

> <UniProt (SwissProt) Secondary ID(s) of Target Chain>
P48355,Q59555

> <UniProt (SwissProt) Alternative ID(s) of Target Chain>


> <UniProt (TrEMBL) Submitted Name of Target Chain>


> <UniProt (TrEMBL) Entry Name of Target Chain>


> <UniProt (TrEMBL) Primary ID of Target Chain>


> <UniProt (TrEMBL) Secondary ID(s) of Target Chain>


> <UniProt (TrEMBL) Alternative ID(s) of Target Chain>


$$$$

  Mrv0541 04171609262D          

 32 35  0  0  0  0            999 V2000
   -1.4361    0.4117    0.0000 C   0  0  0  0  0  0  0  0  0  0  0  0
   -1.4361   -0.4117    0.0000 C   0  0  0  0  0  0  0  0  0  0  0  0
   -0.7130   -0.8235    0.0000 C   0  0  0  0  0  0  0  0  0  0  0  0
   -0.7130    0.8235    0.0000 C   0  0  0  0  0  0  0  0  0  0  0  0
    0.0000    0.4117    0.0000 C   0  0  0  0  0  0  0  0  0  0  0  0
    0.0000   -0.4117    0.0000 C   0  0  0  0  0  0  0  0  0  0  0  0
    0.7130   -0.8235    0.0000 N   0  0  0  0  0  0  0  0  0  0  0  0
    1.4261   -0.4117    0.0000 C   0  0  0  0  0  0  0  0  0  0  0  0
    1.4261    0.4117    0.0000 C   0  0  0  0  0  0  0  0  0  0  0  0
    0.7130    0.8235    0.0000 C   0  0  0  0  0  0  0  0  0  0  0  0
    0.7130    1.6489    0.0000 N   0  0  0  0  0  0  0  0  0  0  0  0
   -0.0008    2.0627    0.0000 C   0  0  0  0  0  0  0  0  0  0  0  0
    0.0006    2.8877    0.0000 C   0  0  0  0  0  0  0  0  0  0  0  0
    0.7158    3.2990    0.0000 C   0  0  0  0  0  0  0  0  0  0  0  0
    1.4296    2.8853    0.0000 C   0  0  0  0  0  0  0  0  0  0  0  0
    1.4282    2.0603    0.0000 C   0  0  0  0  0  0  0  0  0  0  0  0
    0.7188    4.1245    0.0000 N   0  0  0  0  0  0  0  0  0  0  0  0
    1.4350    4.5350    0.0000 C   0  0  0  0  0  0  0  0  0  0  0  0
    2.0054    4.2031    0.0000 S   0  0  0  0  0  0  0  0  0  0  0  0
    1.4380    5.3604    0.0000 N   0  0  0  0  0  0  0  0  0  0  0  0
    2.1541    5.7709    0.0000 C   0  0  0  0  0  0  0  0  0  0  0  0
    2.1584    6.5960    0.0000 C   0  0  0  0  0  0  0  0  0  0  0  0
    2.8750    7.0048    0.0000 C   0  0  0  0  0  0  0  0  0  0  0  0
    3.5873    6.5887    0.0000 C   0  0  0  0  0  0  0  0  0  0  0  0
    3.5831    5.7637    0.0000 C   0  0  0  0  0  0  0  0  0  0  0  0
    2.8666    5.3548    0.0000 C   0  0  0  0  0  0  0  0  0  0  0  0
    1.9977   -0.7417    0.0000 C   0  0  0  0  0  0  0  0  0  0  0  0
   -2.1508    0.8246    0.0000 C   0  0  0  0  0  0  0  0  0  0  0  0
   -2.7227    0.4950    0.0000 F   0  0  0  0  0  0  0  0  0  0  0  0
   -2.1506    1.4846    0.0000 F   0  0  0  0  0  0  0  0  0  0  0  0
   -2.7222    1.1549    0.0000 F   0  0  0  0  0  0  0  0  0  0  0  0
    4.1606    6.9157    0.0000 C   0  0  0  0  0  0  0  0  0  0  0  0
  1  2  4  0  0  0  0
  2  3  4  0  0  0  0
  3  6  4  0  0  0  0
  5  4  4  0  0  0  0
  4  1  4  0  0  0  0
  5  6  4  0  0  0  0
  6  7  4  0  0  0  0
  7  8  4  0  0  0  0
  8  9  4  0  0  0  0
  9 10  4  0  0  0  0
 10  5  4  0  0  0  0
 11 12  1  0  0  0  0
 11 16  1  0  0  0  0
 12 13  1  0  0  0  0
 13 14  1  0  0  0  0
 14 15  1  0  0  0  0
 15 16  1  0  0  0  0
 10 11  1  0  0  0  0
 14 17  1  0  0  0  0
 17 18  1  0  0  0  0
 18 19  2  0  0  0  0
 18 20  1  0  0  0  0
 20 21  1  0  0  0  0
 21 22  4  0  0  0  0
 22 23  4  0  0  0  0
 23 24  4  0  0  0  0
 24 25  4  0  0  0  0
 25 26  4  0  0  0  0
 26 21  4  0  0  0  0
  8 27  1  0  0  0  0
  1 28  1  0  0  0  0
 28 29  1  0  0  0  0
 28 30  1  0  0  0  0
 28 31  1  0  0  0  0
 24 32  1  0  0  0  0
M  END
> <From> 
www.bindingDB.org

> <BindingDB Reactant_set_id>
50303822

> <Ligand InChI>
InChI=1S/C24H25F3N4S/c1-15-3-6-18(7-4-15)29-23(32)30-19-9-11-31(12-10-19)22-13-16(2)28-21-8-5-17(14-20(21)22)24(25,26)27/h3-8,13-14,19H,9-12H2,1-2H3,(H2,29,30,32)

> <Ligand InChI Key>
GNQYGLIMYYVGCQ-UHFFFAOYSA-N

> <BindingDB MonomerID>
50067167

> <BindingDB Ligand Name>
CHEMBL3403287

> <Target Name Assigned by Curator or DataSource>
DNA gyrase subunit B

> <Target Source Organism According to Curator or DataSource>


> <Ki (nM)>


> <IC50 (nM)>
 24680

> <Kd (nM)>


> <EC50 (nM)>


> <kon (M-1-s-1)>


> <koff (s-1)>


> <pH>


> <Temp C>


> <Curation/DataSource>
ChEMBL

> <Article DOI>
10.1016/j.bmc.2015.03.004

> <PMID>
25801151

> <PubChem AID>


> <Patent Number>


> <Authors>
Medapi, B; Renuka, J; Saxena, S; Sridevi, JP; Medishetti, R; Kulkarni, P; Yogeeswari, P; Sriram, D

> <Institution>
Birla Institute of Technology&amp; Science-Pilani

> <Link to Ligand in BindingDB>
http://www.bindingdb.org/bind/chemsearch/marvin/MolStructure.jsp?monomerid=50067167

> <Link to Ligand-Target Pair in BindingDB>
http://www.bindingdb.org/jsp/dbsearch/PrimarySearch_ki.jsp?energyterm=kJ/mole&tag=pol&polymerid=50006452&target=DNA+gyrase+subunit+B&column=ki&startPg=0&Increment=50&submit=Search

> <Link to Ligand-Target Pair in BindingDB>
http://www.bindingdb.org/jsp/dbsearch/PrimarySearch_ki.jsp?energyterm=kJ/mole&tag=r21&monomerid=50067167&enzyme=DNA+gyrase+subunit+B&column=ki&startPg=0&Increment=50&submit=Search

> <Ligand HET ID in PDB>


> <PDB ID(s) for Ligand-Target Complex>


> <PubChem CID>
118729704

> <PubChem SID>
313071796

> <ChEBI ID of Ligand>


> <ChEMBL ID of Ligand>


> <DrugBank ID of Ligand>


> <IUPHAR_GRAC ID of Ligand>


> <KEGG ID of Ligand>


> <ZINC ID of Ligand>


> <Number of Protein Chains in Target (>1 implies a multichain complex)>
1

> <BindingDB Target Chain Sequence>
MAAQKNNAPKEYGADSITILEGLEAVRKRPGMYIGSTGERGLHHLIWEVVDNAVDEAMAGFATRVDVKIHADGSVEVRDDGRGIPVEMHATGMPTIDVVMTQLHAGGKFDGETYAVSGGLHGVGVSVVNALSTRLEATVLRDGYEWFQYYDRSVPGKLKQGGETKETGTTIRFWADPEIFETTDYNFETVARRLQEMAFLNKGLTIELTDERVTAEEVVDDVVKDTAEAPKTADEKAAEATGPSKVKHRVFHYPGGLVDYVKHINRTKTPIQQSIIDFDGKGPGHEVEIAMQWNAGYSESVHTFANTINTHEGGTHEEGFRAALTSVVNRYAKDKKLLKDKDPNLTGDDIREGLAAVISVKVAEPQFEGQTKTKLGNTEVKSFVQKICNEQLQHWFEANPAEAKTVVNKAVSSAQARIAARKARELVRRKSATDIGGLPGKLADCRSTDPSKSELYVVEGDSAGGSAKSGRDSMFQAILPLRGKIINVEKARIDRVLKNTEVQSIITALGTGIHDEFDISKLRYHKIVLMADADVDGQHISTLLLTLLFRFMKPLVENGHIFLAQPPLYKLKWQRSEPEFAYSDRERDGLLEAGRAAGKKINVDDGIQRYKGLGEMDAKELWETTMDPSVRVLRQVTLDDAAAADELFSILMGEDVEARRSFITRNAKDVRFLDV

> <PDB ID(s) of Target Chain>
4BAE

> <UniProt (SwissProt) Recommended Name of Target Chain>
DNA gyrase subunit B

> <UniProt (SwissProt) Entry Name of Target Chain>
GYRB_MYCSM

> <UniProt (SwissProt) Primary ID of Target Chain>
P0C559

> <UniProt (SwissProt) Secondary ID(s) of Target Chain>
P48355,Q59555

> <UniProt (SwissProt) Alternative ID(s) of Target Chain>


> <UniProt (TrEMBL) Submitted Name of Target Chain>


> <UniProt (TrEMBL) Entry Name of Target Chain>


> <UniProt (TrEMBL) Primary ID of Target Chain>


> <UniProt (TrEMBL) Secondary ID(s) of Target Chain>


> <UniProt (TrEMBL) Alternative ID(s) of Target Chain>


$$$$

  Mrv0541 03201611132D          

 26 29  0  0  0  0            999 V2000
   14.9054  -11.9075    0.0000 N   0  0  0  0  0  0  0  0  0  0  0  0
   14.8780  -12.7314    0.0000 C   0  0  0  0  0  0  0  0  0  0  0  0
   14.1455  -13.1159    0.0000 C   0  0  0  0  0  0  0  0  0  0  0  0
   13.4494  -12.6783    0.0000 N   0  0  0  0  0  0  0  0  0  0  0  0
   13.4768  -11.8544    0.0000 C   0  0  0  0  0  0  0  0  0  0  0  0
   14.2053  -11.4710    0.0000 C   0  0  0  0  0  0  0  0  0  0  0  0
   15.6328  -11.5201    0.0000 C   0  0  0  0  0  0  0  0  0  0  0  0
   16.3328  -11.9566    0.0000 O   0  0  0  0  0  0  0  0  0  0  0  0
   15.6642  -10.6951    0.0000 N   0  0  0  0  0  0  0  0  0  0  0  0
   16.3691  -10.2696    0.0000 C   0  0  0  0  0  0  0  0  0  0  0  0
   16.3573   -9.4464    0.0000 C   0  0  0  0  0  0  0  0  0  0  0  0
   17.0623   -9.0208    0.0000 C   0  0  0  0  0  0  0  0  0  0  0  0
   17.7842   -9.4215    0.0000 C   0  0  0  0  0  0  0  0  0  0  0  0
   17.8010  -10.2477    0.0000 C   0  0  0  0  0  0  0  0  0  0  0  0
   17.0910  -10.6704    0.0000 C   0  0  0  0  0  0  0  0  0  0  0  0
   18.4931   -8.9948    0.0000 O   0  0  0  0  0  0  0  0  0  0  0  0
   18.4773   -8.1727    0.0000 C   0  0  0  0  0  0  0  0  0  0  0  0
   11.7911  -14.0284    0.0000 S   0  0  0  0  0  0  0  0  0  0  0  0
   12.6049  -13.8838    0.0000 N   0  0  0  0  0  0  0  0  0  0  0  0
   12.7220  -13.0657    0.0000 C   0  0  0  0  0  0  0  0  0  0  0  0
   11.9785  -12.7076    0.0000 C   0  0  0  0  0  0  0  0  0  0  0  0
   11.4037  -13.3010    0.0000 C   0  0  0  0  0  0  0  0  0  0  0  0
   10.6062  -13.1002    0.0000 C   0  0  0  0  0  0  0  0  0  0  0  0
   10.3793  -12.3071    0.0000 C   0  0  0  0  0  0  0  0  0  0  0  0
   10.9500  -11.7148    0.0000 C   0  0  0  0  0  0  0  0  0  0  0  0
   11.7516  -11.9145    0.0000 C   0  0  0  0  0  0  0  0  0  0  0  0
  1  2  1  0  0  0  0
  2  3  1  0  0  0  0
  3  4  1  0  0  0  0
  4  5  1  0  0  0  0
  5  6  1  0  0  0  0
  1  6  1  0  0  0  0
  7  8  2  0  0  0  0
  7  9  1  0  0  0  0
  1  7  1  0  0  0  0
 10 11  4  0  0  0  0
 11 12  4  0  0  0  0
 12 13  4  0  0  0  0
 13 14  4  0  0  0  0
 14 15  4  0  0  0  0
 10 15  4  0  0  0  0
 16 17  1  0  0  0  0
 13 16  1  0  0  0  0
  9 10  1  0  0  0  0
 18 19  4  0  0  0  0
 19 20  4  0  0  0  0
 20 21  4  0  0  0  0
 21 22  4  0  0  0  0
 18 22  4  0  0  0  0
 23 24  4  0  0  0  0
 24 25  4  0  0  0  0
 25 26  4  0  0  0  0
 21 26  4  0  0  0  0
 22 23  4  0  0  0  0
  4 20  1  0  0  0  0
M  END
> <From> 
www.bindingDB.org

> <BindingDB Reactant_set_id>
50254222

> <Ligand InChI>
InChI=1S/C19H20N4O2S/c1-25-15-8-6-14(7-9-15)20-19(24)23-12-10-22(11-13-23)18-16-4-2-3-5-17(16)26-21-18/h2-9H,10-13H2,1H3,(H,20,24)

> <Ligand InChI Key>
STUCWLIZYBYUOK-UHFFFAOYSA-N

> <BindingDB MonomerID>
50037203

> <BindingDB Ligand Name>
CHEMBL3355800

> <Target Name Assigned by Curator or DataSource>
DNA gyrase subunit B

> <Target Source Organism According to Curator or DataSource>


> <Ki (nM)>


> <IC50 (nM)>
 26180

> <Kd (nM)>


> <EC50 (nM)>


> <kon (M-1-s-1)>


> <koff (s-1)>


> <pH>


> <Temp C>


> <Curation/DataSource>
ChEMBL

> <Article DOI>
10.1016/j.bmc.2014.10.016

> <PMID>
25456076

> <PubChem AID>


> <Patent Number>


> <Authors>
Reddy, KI; Srihari, K; Renuka, J; Sree, KS; Chuppala, A; Jeankumar, VU; Sridevi, JP; Babu, KS; Yogeeswari, P; Sriram, D

> <Institution>
TBA

> <Link to Ligand in BindingDB>
http://www.bindingdb.org/bind/chemsearch/marvin/MolStructure.jsp?monomerid=50037203

> <Link to Ligand-Target Pair in BindingDB>
http://www.bindingdb.org/jsp/dbsearch/PrimarySearch_ki.jsp?energyterm=kJ/mole&tag=pol&polymerid=50006452&target=DNA+gyrase+subunit+B&column=ki&startPg=0&Increment=50&submit=Search

> <Link to Ligand-Target Pair in BindingDB>
http://www.bindingdb.org/jsp/dbsearch/PrimarySearch_ki.jsp?energyterm=kJ/mole&tag=r21&monomerid=50037203&enzyme=DNA+gyrase+subunit+B&column=ki&startPg=0&Increment=50&submit=Search

> <Ligand HET ID in PDB>


> <PDB ID(s) for Ligand-Target Complex>


> <PubChem CID>
118721098

> <PubChem SID>
313067080

> <ChEBI ID of Ligand>


> <ChEMBL ID of Ligand>


> <DrugBank ID of Ligand>


> <IUPHAR_GRAC ID of Ligand>


> <KEGG ID of Ligand>


> <ZINC ID of Ligand>


> <Number of Protein Chains in Target (>1 implies a multichain complex)>
1

> <BindingDB Target Chain Sequence>
MAAQKNNAPKEYGADSITILEGLEAVRKRPGMYIGSTGERGLHHLIWEVVDNAVDEAMAGFATRVDVKIHADGSVEVRDDGRGIPVEMHATGMPTIDVVMTQLHAGGKFDGETYAVSGGLHGVGVSVVNALSTRLEATVLRDGYEWFQYYDRSVPGKLKQGGETKETGTTIRFWADPEIFETTDYNFETVARRLQEMAFLNKGLTIELTDERVTAEEVVDDVVKDTAEAPKTADEKAAEATGPSKVKHRVFHYPGGLVDYVKHINRTKTPIQQSIIDFDGKGPGHEVEIAMQWNAGYSESVHTFANTINTHEGGTHEEGFRAALTSVVNRYAKDKKLLKDKDPNLTGDDIREGLAAVISVKVAEPQFEGQTKTKLGNTEVKSFVQKICNEQLQHWFEANPAEAKTVVNKAVSSAQARIAARKARELVRRKSATDIGGLPGKLADCRSTDPSKSELYVVEGDSAGGSAKSGRDSMFQAILPLRGKIINVEKARIDRVLKNTEVQSIITALGTGIHDEFDISKLRYHKIVLMADADVDGQHISTLLLTLLFRFMKPLVENGHIFLAQPPLYKLKWQRSEPEFAYSDRERDGLLEAGRAAGKKINVDDGIQRYKGLGEMDAKELWETTMDPSVRVLRQVTLDDAAAADELFSILMGEDVEARRSFITRNAKDVRFLDV

> <PDB ID(s) of Target Chain>
4BAE

> <UniProt (SwissProt) Recommended Name of Target Chain>
DNA gyrase subunit B

> <UniProt (SwissProt) Entry Name of Target Chain>
GYRB_MYCSM

> <UniProt (SwissProt) Primary ID of Target Chain>
P0C559

> <UniProt (SwissProt) Secondary ID(s) of Target Chain>
P48355,Q59555

> <UniProt (SwissProt) Alternative ID(s) of Target Chain>


> <UniProt (TrEMBL) Submitted Name of Target Chain>


> <UniProt (TrEMBL) Entry Name of Target Chain>


> <UniProt (TrEMBL) Primary ID of Target Chain>


> <UniProt (TrEMBL) Secondary ID(s) of Target Chain>


> <UniProt (TrEMBL) Alternative ID(s) of Target Chain>


$$$$

  SciTegic04201612532D

 37 40  0  0  0  0            999 V2000
   -1.2964    1.4973    0.0000 N   0  0
   -2.6111    0.7486    0.0000 C   0  0
   -2.6111   -0.7486    0.0000 C   0  0
   -1.2964   -1.4973    0.0000 C   0  0
    0.0000   -0.7486    0.0000 C   0  0
    1.2964   -1.4973    0.0000 C   0  0
    2.5929   -0.7486    0.0000 C   0  0
    2.5929    0.7486    0.0000 C   0  0
    1.2964    1.4973    0.0000 C   0  0
    0.0000    0.7486    0.0000 C   0  0
   -3.9122   -1.4966    0.0000 C   0  0
   -3.9138   -2.4966    0.0000 O   0  0
   -5.2109   -0.7445    0.0000 N   0  0
   -1.2907   -2.9981    0.0000 N   0  0
   -2.5870   -3.7544    0.0000 C   0  0
   -2.5835   -5.2544    0.0000 C   0  0
   -3.8807   -6.0076    0.0000 C   0  0
   -5.1815   -5.2608    0.0000 C   0  0
   -5.1852   -3.7608    0.0000 C   0  0
   -3.8880   -3.0076    0.0000 C   0  0
   -6.4810   -6.0117    0.0000 N   0  0
   -7.7815   -5.2626    0.0000 C   0  0
   -9.0810   -6.0135    0.0000 C   0  0
  -10.3815   -5.2644    0.0000 C   0  0
  -14.2755   -7.5217    0.0000 N   0  0
  -14.2791   -6.0217    0.0000 C   0  0
  -12.9819   -5.2686    0.0000 C   0  0
  -11.6810   -6.0154    0.0000 N   0  0
  -11.6774   -7.5154    0.0000 C   0  0
  -12.9746   -8.2686    0.0000 C   0  0
   -6.2513   -1.3425    0.0000 N   0  0
  -15.5719   -8.2779    0.0000 C   0  0
  -15.5672   -9.4779    0.0000 C   0  0
    3.8926   -1.4991    0.0000 C   0  0
    3.8934   -2.6991    0.0000 F   0  0
    4.9317   -0.8987    0.0000 F   0  0
    4.9322   -2.0986    0.0000 F   0  0
  1  2  2  0
  2  3  1  0
  3  4  2  0
  4  5  1  0
  5  6  2  0
  6  7  1  0
  7  8  2  0
  8  9  1  0
  9 10  2  0
  1 10  1  0
  5 10  1  0
 11 12  2  0
 11 13  1  0
  3 11  1  0
 15 16  1  0
 16 17  2  0
 17 18  1  0
 18 19  2  0
 19 20  1  0
 15 20  2  0
 22 23  1  0
 23 24  1  0
 21 22  1  0
 25 26  1  0
 26 27  1  0
 27 28  1  0
 28 29  1  0
 29 30  1  0
 25 30  1  0
 24 28  1  0
 18 21  1  0
 14 15  1  0
  4 14  1  0
 13 31  1  0
 25 32  1  0
 32 33  1  0
 34 35  1  0
 34 36  1  0
 34 37  1  0
  7 34  1  0
M  END
> <From> 
www.bindingDB.org

> <BindingDB Reactant_set_id>
50426763

> <Ligand InChI>
InChI=1S/C26H32F3N7O/c1-2-35-12-14-36(15-13-35)11-3-10-31-19-5-7-20(8-6-19)33-24-21-16-18(26(27,28)29)4-9-23(21)32-17-22(24)25(37)34-30/h4-9,16-17,31H,2-3,10-15,30H2,1H3,(H,32,33)(H,34,37)

> <Ligand InChI Key>
QZLZISHMGGDYHF-UHFFFAOYSA-N

> <BindingDB MonomerID>
50126390

> <BindingDB Ligand Name>
CHEMBL3628454

> <Target Name Assigned by Curator or DataSource>
DNA gyrase subunit B

> <Target Source Organism According to Curator or DataSource>


> <Ki (nM)>


> <IC50 (nM)>
 26340

> <Kd (nM)>


> <EC50 (nM)>


> <kon (M-1-s-1)>


> <koff (s-1)>


> <pH>


> <Temp C>


> <Curation/DataSource>
ChEMBL

> <Article DOI>
10.1016/j.ejmech.2015.06.032

> <PMID>
26318054

> <PubChem AID>


> <Patent Number>


> <Authors>
Medapi, B; Suryadevara, P; Renuka, J; Sridevi, JP; Yogeeswari, P; Sriram, D

> <Institution>
Birla Institute of Technology&amp;Science

> <Link to Ligand in BindingDB>
http://www.bindingdb.org/bind/chemsearch/marvin/MolStructure.jsp?monomerid=50126390

> <Link to Ligand-Target Pair in BindingDB>
http://www.bindingdb.org/jsp/dbsearch/PrimarySearch_ki.jsp?energyterm=kJ/mole&tag=pol&polymerid=50006452&target=DNA+gyrase+subunit+B&column=ki&startPg=0&Increment=50&submit=Search

> <Link to Ligand-Target Pair in BindingDB>
http://www.bindingdb.org/jsp/dbsearch/PrimarySearch_ki.jsp?energyterm=kJ/mole&tag=r21&monomerid=50126390&enzyme=DNA+gyrase+subunit+B&column=ki&startPg=0&Increment=50&submit=Search

> <Ligand HET ID in PDB>


> <PDB ID(s) for Ligand-Target Complex>


> <PubChem CID>
122193468

> <PubChem SID>
104018466

> <ChEBI ID of Ligand>


> <ChEMBL ID of Ligand>
CHEMBL31035

> <DrugBank ID of Ligand>


> <IUPHAR_GRAC ID of Ligand>


> <KEGG ID of Ligand>


> <ZINC ID of Ligand>
ZINC29212032

> <Number of Protein Chains in Target (>1 implies a multichain complex)>
1

> <BindingDB Target Chain Sequence>
MAAQKNNAPKEYGADSITILEGLEAVRKRPGMYIGSTGERGLHHLIWEVVDNAVDEAMAGFATRVDVKIHADGSVEVRDDGRGIPVEMHATGMPTIDVVMTQLHAGGKFDGETYAVSGGLHGVGVSVVNALSTRLEATVLRDGYEWFQYYDRSVPGKLKQGGETKETGTTIRFWADPEIFETTDYNFETVARRLQEMAFLNKGLTIELTDERVTAEEVVDDVVKDTAEAPKTADEKAAEATGPSKVKHRVFHYPGGLVDYVKHINRTKTPIQQSIIDFDGKGPGHEVEIAMQWNAGYSESVHTFANTINTHEGGTHEEGFRAALTSVVNRYAKDKKLLKDKDPNLTGDDIREGLAAVISVKVAEPQFEGQTKTKLGNTEVKSFVQKICNEQLQHWFEANPAEAKTVVNKAVSSAQARIAARKARELVRRKSATDIGGLPGKLADCRSTDPSKSELYVVEGDSAGGSAKSGRDSMFQAILPLRGKIINVEKARIDRVLKNTEVQSIITALGTGIHDEFDISKLRYHKIVLMADADVDGQHISTLLLTLLFRFMKPLVENGHIFLAQPPLYKLKWQRSEPEFAYSDRERDGLLEAGRAAGKKINVDDGIQRYKGLGEMDAKELWETTMDPSVRVLRQVTLDDAAAADELFSILMGEDVEARRSFITRNAKDVRFLDV

> <PDB ID(s) of Target Chain>
4BAE

> <UniProt (SwissProt) Recommended Name of Target Chain>
DNA gyrase subunit B

> <UniProt (SwissProt) Entry Name of Target Chain>
GYRB_MYCSM

> <UniProt (SwissProt) Primary ID of Target Chain>
P0C559

> <UniProt (SwissProt) Secondary ID(s) of Target Chain>
P48355,Q59555

> <UniProt (SwissProt) Alternative ID(s) of Target Chain>


> <UniProt (TrEMBL) Submitted Name of Target Chain>


> <UniProt (TrEMBL) Entry Name of Target Chain>


> <UniProt (TrEMBL) Primary ID of Target Chain>


> <UniProt (TrEMBL) Secondary ID(s) of Target Chain>


> <UniProt (TrEMBL) Alternative ID(s) of Target Chain>


$$$$

  SciTegic10241708172D

 35 39  0  0  0  0            999 V2000
   25.1994   -1.8861    0.0000 C   0  0
   25.1983   -2.7056    0.0000 C   0  0
   25.9063   -3.1146    0.0000 C   0  0
   25.9046   -1.4772    0.0000 C   0  0
   26.6132   -1.8825    0.0000 C   0  0
   26.6180   -2.7057    0.0000 C   0  0
   27.4024   -2.9555    0.0000 N   0  0
   27.8824   -2.2867    0.0000 C   0  0
   27.3946   -1.6236    0.0000 C   0  0
   27.6425   -0.8449    0.0000 O   0  0
   28.6996   -2.2818    0.0000 O   0  0
   27.6594   -3.7312    0.0000 C   0  0
   27.1162   -4.3417    0.0000 C   0  0
   27.3732   -5.1174    0.0000 N   0  0
   26.8328   -5.7262    0.0000 C   0  0
   27.0869   -6.4991    0.0000 C   0  0
   27.8866   -6.6685    0.0000 N   0  0
   28.4320   -6.0587    0.0000 C   0  0
   28.1776   -5.2794    0.0000 C   0  0
   28.1408   -7.4452    0.0000 N   0  0
   28.9404   -7.6135    0.0000 C   0  0
   29.4860   -7.0051    0.0000 C   0  0
   30.2848   -7.1771    0.0000 C   0  0
   30.8301   -6.5695    0.0000 C   0  0
   30.5761   -5.7918    0.0000 C   0  0
   29.7718   -5.6253    0.0000 C   0  0
   29.2300   -6.2342    0.0000 C   0  0
   30.5369   -7.9544    0.0000 O   0  0
   31.3362   -8.1247    0.0000 C   0  0
   31.8833   -7.5177    0.0000 C   0  0
   32.6809   -7.6910    0.0000 C   0  0
   33.2278   -7.0847    0.0000 C   0  0
   32.9758   -6.3064    0.0000 C   0  0
   32.1719   -6.1378    0.0000 C   0  0
   31.6285   -6.7454    0.0000 C   0  0
  1  2  2  0
  2  3  1  0
  3  6  2  0
  5  4  2  0
  4  1  1  0
  5  6  1  0
  6  7  1  0
  7  8  1  0
  8  9  1  0
  9  5  1  0
  9 10  2  0
  8 11  2  0
  7 12  1  0
 12 13  1  0
 13 14  1  0
 14 15  1  0
 14 19  1  0
 15 16  1  0
 16 17  1  0
 17 18  1  0
 18 19  1  0
 17 20  1  0
 20 21  1  0
 21 22  1  0
 22 23  2  0
 23 24  1  0
 24 25  2  0
 25 26  1  0
 26 27  2  0
 27 22  1  0
 23 28  1  0
 28 29  1  0
 29 30  1  0
 30 31  2  0
 31 32  1  0
 32 33  2  0
 33 34  1  0
 34 35  2  0
 35 30  1  0
M  END
> <From> 
www.bindingDB.org

> <BindingDB Reactant_set_id>
50543805

> <Ligand InChI>
InChI=1S/C28H30N4O3/c33-27-24-11-5-6-12-25(24)32(28(27)34)19-16-30-14-17-31(18-15-30)29-20-23-10-4-7-13-26(23)35-21-22-8-2-1-3-9-22/h1-13,29H,14-21H2

> <Ligand InChI Key>
BJASRUBTUINCFI-UHFFFAOYSA-N

> <BindingDB MonomerID>
50208272

> <BindingDB Ligand Name>
CHEMBL3885289

> <Target Name Assigned by Curator or DataSource>
DNA gyrase subunit B

> <Target Source Organism According to Curator or DataSource>


> <Ki (nM)>


> <IC50 (nM)>
 26600

> <Kd (nM)>


> <EC50 (nM)>


> <kon (M-1-s-1)>


> <koff (s-1)>


> <pH>


> <Temp C>


> <Curation/DataSource>
ChEMBL

> <Article DOI>
10.1016/j.ejmech.2016.08.034

> <PMID>
27569197

> <PubChem AID>


> <Patent Number>


> <Authors>
Chaudhari, K; Surana, S; Jain, P; Patel, HM

> <Institution>
R. C. Patel Institute of Pharmaceutical Education and Research

> <Link to Ligand in BindingDB>
http://www.bindingdb.org/bind/chemsearch/marvin/MolStructure.jsp?monomerid=50208272

> <Link to Ligand-Target Pair in BindingDB>
http://www.bindingdb.org/jsp/dbsearch/PrimarySearch_ki.jsp?energyterm=kJ/mole&tag=pol&polymerid=50006452&target=DNA+gyrase+subunit+B&column=ki&startPg=0&Increment=50&submit=Search

> <Link to Ligand-Target Pair in BindingDB>
http://www.bindingdb.org/jsp/dbsearch/PrimarySearch_ki.jsp?energyterm=kJ/mole&tag=r21&monomerid=50208272&enzyme=DNA+gyrase+subunit+B&column=ki&startPg=0&Increment=50&submit=Search

> <Ligand HET ID in PDB>


> <PDB ID(s) for Ligand-Target Complex>


> <PubChem CID>
134130279

> <PubChem SID>
375981965

> <ChEBI ID of Ligand>


> <ChEMBL ID of Ligand>


> <DrugBank ID of Ligand>


> <IUPHAR_GRAC ID of Ligand>


> <KEGG ID of Ligand>


> <ZINC ID of Ligand>


> <Number of Protein Chains in Target (>1 implies a multichain complex)>
1

> <BindingDB Target Chain Sequence>
MAAQKNNAPKEYGADSITILEGLEAVRKRPGMYIGSTGERGLHHLIWEVVDNAVDEAMAGFATRVDVKIHADGSVEVRDDGRGIPVEMHATGMPTIDVVMTQLHAGGKFDGETYAVSGGLHGVGVSVVNALSTRLEATVLRDGYEWFQYYDRSVPGKLKQGGETKETGTTIRFWADPEIFETTDYNFETVARRLQEMAFLNKGLTIELTDERVTAEEVVDDVVKDTAEAPKTADEKAAEATGPSKVKHRVFHYPGGLVDYVKHINRTKTPIQQSIIDFDGKGPGHEVEIAMQWNAGYSESVHTFANTINTHEGGTHEEGFRAALTSVVNRYAKDKKLLKDKDPNLTGDDIREGLAAVISVKVAEPQFEGQTKTKLGNTEVKSFVQKICNEQLQHWFEANPAEAKTVVNKAVSSAQARIAARKARELVRRKSATDIGGLPGKLADCRSTDPSKSELYVVEGDSAGGSAKSGRDSMFQAILPLRGKIINVEKARIDRVLKNTEVQSIITALGTGIHDEFDISKLRYHKIVLMADADVDGQHISTLLLTLLFRFMKPLVENGHIFLAQPPLYKLKWQRSEPEFAYSDRERDGLLEAGRAAGKKINVDDGIQRYKGLGEMDAKELWETTMDPSVRVLRQVTLDDAAAADELFSILMGEDVEARRSFITRNAKDVRFLDV

> <PDB ID(s) of Target Chain>
4BAE

> <UniProt (SwissProt) Recommended Name of Target Chain>
DNA gyrase subunit B

> <UniProt (SwissProt) Entry Name of Target Chain>
GYRB_MYCSM

> <UniProt (SwissProt) Primary ID of Target Chain>
P0C559

> <UniProt (SwissProt) Secondary ID(s) of Target Chain>
P48355,Q59555

> <UniProt (SwissProt) Alternative ID(s) of Target Chain>


> <UniProt (TrEMBL) Submitted Name of Target Chain>


> <UniProt (TrEMBL) Entry Name of Target Chain>


> <UniProt (TrEMBL) Primary ID of Target Chain>


> <UniProt (TrEMBL) Secondary ID(s) of Target Chain>


> <UniProt (TrEMBL) Alternative ID(s) of Target Chain>


$$$$

  Mrv0541 11241418562D          

 34 37  0  0  0  0            999 V2000
   15.9374   -9.2417    0.0000 N   0  0  0  0  0  0  0  0  0  0  0  0
   16.7624   -9.2417    0.0000 C   0  0  0  0  0  0  0  0  0  0  0  0
   17.0193   -8.4575    0.0000 C   0  0  0  0  0  0  0  0  0  0  0  0
   16.3499   -7.9708    0.0000 S   0  0  0  0  0  0  0  0  0  0  0  0
   15.6849   -8.4575    0.0000 C   0  0  0  0  0  0  0  0  0  0  0  0
   17.7423   -8.0587    0.0000 C   0  0  0  0  0  0  0  0  0  0  0  0
   17.7586   -7.2338    0.0000 O   0  0  0  0  0  0  0  0  0  0  0  0
   18.4485   -8.4851    0.0000 O   0  0  0  0  0  0  0  0  0  0  0  0
   19.1709   -8.0867    0.0000 C   0  0  0  0  0  0  0  0  0  0  0  0
   19.8772   -8.5133    0.0000 C   0  0  0  0  0  0  0  0  0  0  0  0
   14.9630   -8.0573    0.0000 C   0  0  0  0  0  0  0  0  0  0  0  0
   14.9522   -7.2343    0.0000 C   0  0  0  0  0  0  0  0  0  0  0  0
   14.2318   -6.8338    0.0000 C   0  0  0  0  0  0  0  0  0  0  0  0
   13.5233   -7.2583    0.0000 C   0  0  0  0  0  0  0  0  0  0  0  0
   13.5398   -8.0873    0.0000 C   0  0  0  0  0  0  0  0  0  0  0  0
   14.2608   -8.4841    0.0000 C   0  0  0  0  0  0  0  0  0  0  0  0
   17.2464   -9.9098    0.0000 N   0  0  0  0  0  0  0  0  0  0  0  0
   16.8346  -10.6293    0.0000 C   0  0  0  0  0  0  0  0  0  0  0  0
   17.2486  -11.3386    0.0000 C   0  0  0  0  0  0  0  0  0  0  0  0
   18.0740  -11.3370    0.0000 C   0  0  0  0  0  0  0  0  0  0  0  0
   18.4836  -10.6198    0.0000 C   0  0  0  0  0  0  0  0  0  0  0  0
   18.0679   -9.9041    0.0000 C   0  0  0  0  0  0  0  0  0  0  0  0
   18.4889  -12.0501    0.0000 N   0  0  0  0  0  0  0  0  0  0  0  0
   19.3139  -12.0473    0.0000 C   0  0  0  0  0  0  0  0  0  0  0  0
   19.7288  -12.7604    0.0000 C   0  0  0  0  0  0  0  0  0  0  0  0
   19.3171  -13.4741    0.0000 C   0  0  0  0  0  0  0  0  0  0  0  0
   19.7313  -14.1868    0.0000 C   0  0  0  0  0  0  0  0  0  0  0  0
   20.5571  -14.1844    0.0000 C   0  0  0  0  0  0  0  0  0  0  0  0
   20.9671  -13.4635    0.0000 C   0  0  0  0  0  0  0  0  0  0  0  0
   20.5505  -12.7539    0.0000 C   0  0  0  0  0  0  0  0  0  0  0  0
   21.7920  -13.4579    0.0000 C   0  0  0  0  0  0  0  0  0  0  0  0
   22.2095  -14.1695    0.0000 F   0  0  0  0  0  0  0  0  0  0  0  0
   22.1996  -12.7406    0.0000 F   0  0  0  0  0  0  0  0  0  0  0  0
   22.6166  -13.4541    0.0000 F   0  0  0  0  0  0  0  0  0  0  0  0
  1  2  1  0  0  0  0
  2  3  2  0  0  0  0
  3  4  1  0  0  0  0
  4  5  1  0  0  0  0
  5  1  2  0  0  0  0
  3  6  1  0  0  0  0
  6  7  2  0  0  0  0
  6  8  1  0  0  0  0
  8  9  1  0  0  0  0
  9 10  1  0  0  0  0
  5 11  1  0  0  0  0
 11 12  2  0  0  0  0
 12 13  1  0  0  0  0
 13 14  2  0  0  0  0
 14 15  1  0  0  0  0
 15 16  2  0  0  0  0
 16 11  1  0  0  0  0
  2 17  1  0  0  0  0
 17 18  1  0  0  0  0
 17 22  1  0  0  0  0
 18 19  1  0  0  0  0
 19 20  1  0  0  0  0
 20 21  1  0  0  0  0
 21 22  1  0  0  0  0
 20 23  1  0  0  0  0
 23 24  1  0  0  0  0
 24 25  1  0  0  0  0
 25 26  2  0  0  0  0
 26 27  1  0  0  0  0
 27 28  2  0  0  0  0
 28 29  1  0  0  0  0
 29 30  2  0  0  0  0
 30 25  1  0  0  0  0
 29 31  1  0  0  0  0
 31 32  1  0  0  0  0
 31 33  1  0  0  0  0
 31 34  1  0  0  0  0
M  END
> <From> 
www.bindingDB.org

> <BindingDB Reactant_set_id>
51083546

> <Ligand InChI>
InChI=1S/C25H26F3N3O2S/c1-2-33-24(32)21-22(30-23(34-21)18-8-4-3-5-9-18)31-13-11-20(12-14-31)29-16-17-7-6-10-19(15-17)25(26,27)28/h3-10,15,20,29H,2,11-14,16H2,1H3

> <Ligand InChI Key>
WYVKJPKFWDCXQO-UHFFFAOYSA-N

> <BindingDB MonomerID>
50443324

> <BindingDB Ligand Name>
CHEMBL3088289

> <Target Name Assigned by Curator or DataSource>
DNA gyrase subunit B

> <Target Source Organism According to Curator or DataSource>


> <Ki (nM)>


> <IC50 (nM)>
 26900

> <Kd (nM)>


> <EC50 (nM)>


> <kon (M-1-s-1)>


> <koff (s-1)>


> <pH>


> <Temp C>


> <Curation/DataSource>
ChEMBL

> <Article DOI>
10.1016/j.ejmech.2013.09.025

> <PMID>
24148991

> <PubChem AID>


> <Patent Number>


> <Authors>
Jeankumar, VU; Renuka, J; Santosh, P; Soni, V; Sridevi, JP; Suryadevara, P; Yogeeswari, P; Sriram, D

> <Institution>
Birla Institute of Technology&amp; Science-Pilani

> <Link to Ligand in BindingDB>
http://www.bindingdb.org/bind/chemsearch/marvin/MolStructure.jsp?monomerid=50443324

> <Link to Ligand-Target Pair in BindingDB>
http://www.bindingdb.org/jsp/dbsearch/PrimarySearch_ki.jsp?energyterm=kJ/mole&tag=pol&polymerid=50006452&target=DNA+gyrase+subunit+B&column=ki&startPg=0&Increment=50&submit=Search

> <Link to Ligand-Target Pair in BindingDB>
http://www.bindingdb.org/jsp/dbsearch/PrimarySearch_ki.jsp?energyterm=kJ/mole&tag=r21&monomerid=50443324&enzyme=DNA+gyrase+subunit+B&column=ki&startPg=0&Increment=50&submit=Search

> <Ligand HET ID in PDB>


> <PDB ID(s) for Ligand-Target Complex>


> <PubChem CID>
76313634

> <PubChem SID>
194941220

> <ChEBI ID of Ligand>


> <ChEMBL ID of Ligand>
CHEMBL3088289

> <DrugBank ID of Ligand>


> <IUPHAR_GRAC ID of Ligand>


> <KEGG ID of Ligand>


> <ZINC ID of Ligand>


> <Number of Protein Chains in Target (>1 implies a multichain complex)>
1

> <BindingDB Target Chain Sequence>
MAAQKNNAPKEYGADSITILEGLEAVRKRPGMYIGSTGERGLHHLIWEVVDNAVDEAMAGFATRVDVKIHADGSVEVRDDGRGIPVEMHATGMPTIDVVMTQLHAGGKFDGETYAVSGGLHGVGVSVVNALSTRLEATVLRDGYEWFQYYDRSVPGKLKQGGETKETGTTIRFWADPEIFETTDYNFETVARRLQEMAFLNKGLTIELTDERVTAEEVVDDVVKDTAEAPKTADEKAAEATGPSKVKHRVFHYPGGLVDYVKHINRTKTPIQQSIIDFDGKGPGHEVEIAMQWNAGYSESVHTFANTINTHEGGTHEEGFRAALTSVVNRYAKDKKLLKDKDPNLTGDDIREGLAAVISVKVAEPQFEGQTKTKLGNTEVKSFVQKICNEQLQHWFEANPAEAKTVVNKAVSSAQARIAARKARELVRRKSATDIGGLPGKLADCRSTDPSKSELYVVEGDSAGGSAKSGRDSMFQAILPLRGKIINVEKARIDRVLKNTEVQSIITALGTGIHDEFDISKLRYHKIVLMADADVDGQHISTLLLTLLFRFMKPLVENGHIFLAQPPLYKLKWQRSEPEFAYSDRERDGLLEAGRAAGKKINVDDGIQRYKGLGEMDAKELWETTMDPSVRVLRQVTLDDAAAADELFSILMGEDVEARRSFITRNAKDVRFLDV

> <PDB ID(s) of Target Chain>
4BAE

> <UniProt (SwissProt) Recommended Name of Target Chain>
DNA gyrase subunit B

> <UniProt (SwissProt) Entry Name of Target Chain>
GYRB_MYCSM

> <UniProt (SwissProt) Primary ID of Target Chain>
P0C559

> <UniProt (SwissProt) Secondary ID(s) of Target Chain>
P48355,Q59555

> <UniProt (SwissProt) Alternative ID(s) of Target Chain>


> <UniProt (TrEMBL) Submitted Name of Target Chain>


> <UniProt (TrEMBL) Entry Name of Target Chain>


> <UniProt (TrEMBL) Primary ID of Target Chain>


> <UniProt (TrEMBL) Secondary ID(s) of Target Chain>


> <UniProt (TrEMBL) Alternative ID(s) of Target Chain>


$$$$

  SciTegic12211702212D

 29 32  0  0  0  0            999 V2000
    7.6699  -15.1876    0.0000 N   0  0
    6.9565  -15.5855    0.0000 C   0  0
    6.9436  -16.4025    0.0000 C   0  0
    7.6482  -16.8217    0.0000 N   0  0
    8.3616  -16.4239    0.0000 C   0  0
    8.3704  -15.6068    0.0000 C   0  0
    7.6787  -14.3705    0.0000 C   0  0
    8.3921  -13.9726    0.0000 N   0  0
    6.9783  -13.9513    0.0000 S   0  0
    8.4051  -13.1556    0.0000 C   0  0
    9.1185  -12.7536    0.0000 C   0  0
    9.1314  -11.9365    0.0000 C   0  0
    8.4268  -11.5214    0.0000 C   0  0
    7.7134  -11.9193    0.0000 C   0  0
    7.7046  -12.7364    0.0000 C   0  0
    7.6135  -19.2730    0.0000 N   0  0
    8.3269  -18.8751    0.0000 C   0  0
    8.3357  -18.0580    0.0000 C   0  0
    7.6352  -17.6388    0.0000 C   0  0
    6.9218  -18.0367    0.0000 C   0  0
    6.2214  -17.6175    0.0000 C   0  0
    5.5080  -18.0154    0.0000 C   0  0
    5.4951  -18.8366    0.0000 C   0  0
    6.1955  -19.2517    0.0000 C   0  0
    6.9130  -18.8538    0.0000 C   0  0
    4.7817  -19.2345    0.0000 Cl  0  0
    8.4365  -10.7043    0.0000 C   0  0
    9.1490  -10.3041    0.0000 O   0  0
    7.7336  -10.2874    0.0000 C   0  0
  1  2  1  0
  2  3  1  0
  3  4  1  0
  4  5  1  0
  5  6  1  0
  1  6  1  0
  7  8  1  0
  7  9  2  0
  1  7  1  0
 10 11  1  0
 11 12  2  0
 12 13  1  0
 13 14  2  0
 14 15  1  0
 10 15  2  0
  8 10  1  0
 16 17  2  0
 17 18  1  0
 18 19  2  0
 19 20  1  0
 20 21  2  0
 21 22  1  0
 22 23  2  0
 23 24  1  0
 24 25  2  0
 16 25  1  0
 20 25  1  0
 23 26  1  0
  4 19  1  0
 13 27  1  0
 27 28  2  0
 27 29  1  0
M  END
> <From> 
www.bindingDB.org

> <BindingDB Reactant_set_id>
50528069

> <Ligand InChI>
InChI=1S/C22H21ClN4OS/c1-15(28)16-2-5-18(6-3-16)25-22(29)27-12-10-26(11-13-27)21-8-9-24-20-14-17(23)4-7-19(20)21/h2-9,14H,10-13H2,1H3,(H,25,29)

> <Ligand InChI Key>
JTDZOYZZDOBGFA-UHFFFAOYSA-N

> <BindingDB MonomerID>
50202201

> <BindingDB Ligand Name>
CHEMBL3906720

> <Target Name Assigned by Curator or DataSource>
DNA gyrase subunit B

> <Target Source Organism According to Curator or DataSource>


> <Ki (nM)>


> <IC50 (nM)>
 27000

> <Kd (nM)>


> <EC50 (nM)>


> <kon (M-1-s-1)>


> <koff (s-1)>


> <pH>


> <Temp C>


> <Curation/DataSource>
ChEMBL

> <Article DOI>
10.1016/j.ejmech.2016.06.042

> <PMID>
27371925

> <PubChem AID>


> <Patent Number>


> <Authors>
Jeankumar, VU; Reshma, RS; Vats, R; Janupally, R; Saxena, S; Yogeeswari, P; Sriram, D

> <Institution>
Birla Institute of Technology&amp; Science-Pilani

> <Link to Ligand in BindingDB>
http://www.bindingdb.org/bind/chemsearch/marvin/MolStructure.jsp?monomerid=50202201

> <Link to Ligand-Target Pair in BindingDB>
http://www.bindingdb.org/jsp/dbsearch/PrimarySearch_ki.jsp?energyterm=kJ/mole&tag=pol&polymerid=50006452&target=DNA+gyrase+subunit+B&column=ki&startPg=0&Increment=50&submit=Search

> <Link to Ligand-Target Pair in BindingDB>
http://www.bindingdb.org/jsp/dbsearch/PrimarySearch_ki.jsp?energyterm=kJ/mole&tag=r21&monomerid=50202201&enzyme=DNA+gyrase+subunit+B&column=ki&startPg=0&Increment=50&submit=Search

> <Ligand HET ID in PDB>


> <PDB ID(s) for Ligand-Target Complex>


> <PubChem CID>
134135572

> <PubChem SID>
375979582

> <ChEBI ID of Ligand>


> <ChEMBL ID of Ligand>


> <DrugBank ID of Ligand>


> <IUPHAR_GRAC ID of Ligand>


> <KEGG ID of Ligand>


> <ZINC ID of Ligand>


> <Number of Protein Chains in Target (>1 implies a multichain complex)>
1

> <BindingDB Target Chain Sequence>
MAAQKNNAPKEYGADSITILEGLEAVRKRPGMYIGSTGERGLHHLIWEVVDNAVDEAMAGFATRVDVKIHADGSVEVRDDGRGIPVEMHATGMPTIDVVMTQLHAGGKFDGETYAVSGGLHGVGVSVVNALSTRLEATVLRDGYEWFQYYDRSVPGKLKQGGETKETGTTIRFWADPEIFETTDYNFETVARRLQEMAFLNKGLTIELTDERVTAEEVVDDVVKDTAEAPKTADEKAAEATGPSKVKHRVFHYPGGLVDYVKHINRTKTPIQQSIIDFDGKGPGHEVEIAMQWNAGYSESVHTFANTINTHEGGTHEEGFRAALTSVVNRYAKDKKLLKDKDPNLTGDDIREGLAAVISVKVAEPQFEGQTKTKLGNTEVKSFVQKICNEQLQHWFEANPAEAKTVVNKAVSSAQARIAARKARELVRRKSATDIGGLPGKLADCRSTDPSKSELYVVEGDSAGGSAKSGRDSMFQAILPLRGKIINVEKARIDRVLKNTEVQSIITALGTGIHDEFDISKLRYHKIVLMADADVDGQHISTLLLTLLFRFMKPLVENGHIFLAQPPLYKLKWQRSEPEFAYSDRERDGLLEAGRAAGKKINVDDGIQRYKGLGEMDAKELWETTMDPSVRVLRQVTLDDAAAADELFSILMGEDVEARRSFITRNAKDVRFLDV

> <PDB ID(s) of Target Chain>
4BAE

> <UniProt (SwissProt) Recommended Name of Target Chain>
DNA gyrase subunit B

> <UniProt (SwissProt) Entry Name of Target Chain>
GYRB_MYCSM

> <UniProt (SwissProt) Primary ID of Target Chain>
P0C559

> <UniProt (SwissProt) Secondary ID(s) of Target Chain>
P48355,Q59555

> <UniProt (SwissProt) Alternative ID(s) of Target Chain>


> <UniProt (TrEMBL) Submitted Name of Target Chain>


> <UniProt (TrEMBL) Entry Name of Target Chain>


> <UniProt (TrEMBL) Primary ID of Target Chain>


> <UniProt (TrEMBL) Secondary ID(s) of Target Chain>


> <UniProt (TrEMBL) Alternative ID(s) of Target Chain>


$$$$

  Mrv0541 03201611132D          

 27 30  0  0  0  0            999 V2000
   16.6374  -13.3229    0.0000 N   0  0  0  0  0  0  0  0  0  0  0  0
   16.6400  -14.1479    0.0000 C   0  0  0  0  0  0  0  0  0  0  0  0
   15.9296  -14.5645    0.0000 C   0  0  0  0  0  0  0  0  0  0  0  0
   15.2128  -14.1575    0.0000 N   0  0  0  0  0  0  0  0  0  0  0  0
   15.2102  -13.3325    0.0000 C   0  0  0  0  0  0  0  0  0  0  0  0
   15.9205  -12.9158    0.0000 C   0  0  0  0  0  0  0  0  0  0  0  0
   17.3478  -12.9062    0.0000 C   0  0  0  0  0  0  0  0  0  0  0  0
   17.3414  -12.0825    0.0000 N   0  0  0  0  0  0  0  0  0  0  0  0
   18.0330  -11.6314    0.0000 C   0  0  0  0  0  0  0  0  0  0  0  0
   17.9861  -10.8059    0.0000 C   0  0  0  0  0  0  0  0  0  0  0  0
   18.6725  -10.3522    0.0000 C   0  0  0  0  0  0  0  0  0  0  0  0
   19.4097  -10.7227    0.0000 C   0  0  0  0  0  0  0  0  0  0  0  0
   19.4566  -11.5482    0.0000 C   0  0  0  0  0  0  0  0  0  0  0  0
   18.7702  -12.0019    0.0000 C   0  0  0  0  0  0  0  0  0  0  0  0
   20.0974  -10.2729    0.0000 N   0  3  0  0  0  0  0  0  0  0  0  0
   20.0506   -9.4475    0.0000 O   0  0  0  0  0  0  0  0  0  0  0  0
   20.8346  -10.6433    0.0000 O   0  5  0  0  0  0  0  0  0  0  0  0
   18.0647  -13.3133    0.0000 O   0  0  0  0  0  0  0  0  0  0  0  0
   13.6152  -15.5682    0.0000 S   0  0  0  0  0  0  0  0  0  0  0  0
   14.4217  -15.3904    0.0000 N   0  0  0  0  0  0  0  0  0  0  0  0
   14.5011  -14.5701    0.0000 C   0  0  0  0  0  0  0  0  0  0  0  0
   13.7480  -14.2417    0.0000 C   0  0  0  0  0  0  0  0  0  0  0  0
   13.1985  -14.8578    0.0000 C   0  0  0  0  0  0  0  0  0  0  0  0
   12.3900  -14.6914    0.0000 C   0  0  0  0  0  0  0  0  0  0  0  0
   12.1309  -13.9088    0.0000 C   0  0  0  0  0  0  0  0  0  0  0  0
   12.6804  -13.2928    0.0000 C   0  0  0  0  0  0  0  0  0  0  0  0
   13.4889  -13.4593    0.0000 C   0  0  0  0  0  0  0  0  0  0  0  0
  1  2  1  0  0  0  0
  2  3  1  0  0  0  0
  3  4  1  0  0  0  0
  4  5  1  0  0  0  0
  5  6  1  0  0  0  0
  1  6  1  0  0  0  0
  9 10  4  0  0  0  0
 10 11  4  0  0  0  0
 11 12  4  0  0  0  0
 12 13  4  0  0  0  0
 13 14  4  0  0  0  0
  9 14  4  0  0  0  0
 15 16  2  0  0  0  0
 15 17  1  0  0  0  0
 12 15  1  0  0  0  0
  8  9  1  0  0  0  0
  7  8  1  0  0  0  0
  7 18  2  0  0  0  0
  1  7  1  0  0  0  0
 19 20  4  0  0  0  0
 20 21  4  0  0  0  0
 21 22  4  0  0  0  0
 22 23  4  0  0  0  0
 19 23  4  0  0  0  0
 24 25  4  0  0  0  0
 25 26  4  0  0  0  0
 26 27  4  0  0  0  0
 22 27  4  0  0  0  0
 23 24  4  0  0  0  0
  4 21  1  0  0  0  0
M  CHG  2  15   1  17  -1
M  END
> <From> 
www.bindingDB.org

> <BindingDB Reactant_set_id>
50254223

> <Ligand InChI>
InChI=1S/C18H17N5O3S/c24-18(19-13-5-7-14(8-6-13)23(25)26)22-11-9-21(10-12-22)17-15-3-1-2-4-16(15)27-20-17/h1-8H,9-12H2,(H,19,24)

> <Ligand InChI Key>
VIXSHQOPCGGOJO-UHFFFAOYSA-N

> <BindingDB MonomerID>
50037204

> <BindingDB Ligand Name>
CHEMBL3355799

> <Target Name Assigned by Curator or DataSource>
DNA gyrase subunit B

> <Target Source Organism According to Curator or DataSource>


> <Ki (nM)>


> <IC50 (nM)>
 27110

> <Kd (nM)>


> <EC50 (nM)>


> <kon (M-1-s-1)>


> <koff (s-1)>


> <pH>


> <Temp C>


> <Curation/DataSource>
ChEMBL

> <Article DOI>
10.1016/j.bmc.2014.10.016

> <PMID>
25456076

> <PubChem AID>


> <Patent Number>


> <Authors>
Reddy, KI; Srihari, K; Renuka, J; Sree, KS; Chuppala, A; Jeankumar, VU; Sridevi, JP; Babu, KS; Yogeeswari, P; Sriram, D

> <Institution>
TBA

> <Link to Ligand in BindingDB>
http://www.bindingdb.org/bind/chemsearch/marvin/MolStructure.jsp?monomerid=50037204

> <Link to Ligand-Target Pair in BindingDB>
http://www.bindingdb.org/jsp/dbsearch/PrimarySearch_ki.jsp?energyterm=kJ/mole&tag=pol&polymerid=50006452&target=DNA+gyrase+subunit+B&column=ki&startPg=0&Increment=50&submit=Search

> <Link to Ligand-Target Pair in BindingDB>
http://www.bindingdb.org/jsp/dbsearch/PrimarySearch_ki.jsp?energyterm=kJ/mole&tag=r21&monomerid=50037204&enzyme=DNA+gyrase+subunit+B&column=ki&startPg=0&Increment=50&submit=Search

> <Ligand HET ID in PDB>


> <PDB ID(s) for Ligand-Target Complex>


> <PubChem CID>
118721097

> <PubChem SID>
313067081

> <ChEBI ID of Ligand>


> <ChEMBL ID of Ligand>


> <DrugBank ID of Ligand>


> <IUPHAR_GRAC ID of Ligand>


> <KEGG ID of Ligand>


> <ZINC ID of Ligand>


> <Number of Protein Chains in Target (>1 implies a multichain complex)>
1

> <BindingDB Target Chain Sequence>
MAAQKNNAPKEYGADSITILEGLEAVRKRPGMYIGSTGERGLHHLIWEVVDNAVDEAMAGFATRVDVKIHADGSVEVRDDGRGIPVEMHATGMPTIDVVMTQLHAGGKFDGETYAVSGGLHGVGVSVVNALSTRLEATVLRDGYEWFQYYDRSVPGKLKQGGETKETGTTIRFWADPEIFETTDYNFETVARRLQEMAFLNKGLTIELTDERVTAEEVVDDVVKDTAEAPKTADEKAAEATGPSKVKHRVFHYPGGLVDYVKHINRTKTPIQQSIIDFDGKGPGHEVEIAMQWNAGYSESVHTFANTINTHEGGTHEEGFRAALTSVVNRYAKDKKLLKDKDPNLTGDDIREGLAAVISVKVAEPQFEGQTKTKLGNTEVKSFVQKICNEQLQHWFEANPAEAKTVVNKAVSSAQARIAARKARELVRRKSATDIGGLPGKLADCRSTDPSKSELYVVEGDSAGGSAKSGRDSMFQAILPLRGKIINVEKARIDRVLKNTEVQSIITALGTGIHDEFDISKLRYHKIVLMADADVDGQHISTLLLTLLFRFMKPLVENGHIFLAQPPLYKLKWQRSEPEFAYSDRERDGLLEAGRAAGKKINVDDGIQRYKGLGEMDAKELWETTMDPSVRVLRQVTLDDAAAADELFSILMGEDVEARRSFITRNAKDVRFLDV

> <PDB ID(s) of Target Chain>
4BAE

> <UniProt (SwissProt) Recommended Name of Target Chain>
DNA gyrase subunit B

> <UniProt (SwissProt) Entry Name of Target Chain>
GYRB_MYCSM

> <UniProt (SwissProt) Primary ID of Target Chain>
P0C559

> <UniProt (SwissProt) Secondary ID(s) of Target Chain>
P48355,Q59555

> <UniProt (SwissProt) Alternative ID(s) of Target Chain>


> <UniProt (TrEMBL) Submitted Name of Target Chain>


> <UniProt (TrEMBL) Entry Name of Target Chain>


> <UniProt (TrEMBL) Primary ID of Target Chain>


> <UniProt (TrEMBL) Secondary ID(s) of Target Chain>


> <UniProt (TrEMBL) Alternative ID(s) of Target Chain>


$$$$

  Mrv0541 11241418562D          

 32 35  0  0  0  0            999 V2000
   31.0129  -30.6255    0.0000 N   0  0  0  0  0  0  0  0  0  0  0  0
   31.8379  -30.6255    0.0000 C   0  0  0  0  0  0  0  0  0  0  0  0
   32.0948  -29.8414    0.0000 C   0  0  0  0  0  0  0  0  0  0  0  0
   31.4254  -29.3546    0.0000 S   0  0  0  0  0  0  0  0  0  0  0  0
   30.7604  -29.8414    0.0000 C   0  0  0  0  0  0  0  0  0  0  0  0
   32.8178  -29.4424    0.0000 C   0  0  0  0  0  0  0  0  0  0  0  0
   32.8341  -28.6176    0.0000 O   0  0  0  0  0  0  0  0  0  0  0  0
   33.5240  -29.8690    0.0000 O   0  0  0  0  0  0  0  0  0  0  0  0
   34.2465  -29.4706    0.0000 C   0  0  0  0  0  0  0  0  0  0  0  0
   34.9528  -29.8970    0.0000 C   0  0  0  0  0  0  0  0  0  0  0  0
   30.0385  -29.4411    0.0000 C   0  0  0  0  0  0  0  0  0  0  0  0
   30.0277  -28.6180    0.0000 C   0  0  0  0  0  0  0  0  0  0  0  0
   29.3073  -28.2176    0.0000 C   0  0  0  0  0  0  0  0  0  0  0  0
   28.5987  -28.6420    0.0000 N   0  0  0  0  0  0  0  0  0  0  0  0
   28.6153  -29.4712    0.0000 C   0  0  0  0  0  0  0  0  0  0  0  0
   29.3362  -29.8679    0.0000 C   0  0  0  0  0  0  0  0  0  0  0  0
   32.3219  -31.2936    0.0000 N   0  0  0  0  0  0  0  0  0  0  0  0
   31.9101  -32.0131    0.0000 C   0  0  0  0  0  0  0  0  0  0  0  0
   32.3242  -32.7225    0.0000 C   0  0  0  0  0  0  0  0  0  0  0  0
   33.1496  -32.7209    0.0000 C   0  0  0  0  0  0  0  0  0  0  0  0
   33.5592  -32.0036    0.0000 C   0  0  0  0  0  0  0  0  0  0  0  0
   33.1434  -31.2879    0.0000 C   0  0  0  0  0  0  0  0  0  0  0  0
   33.5645  -33.4340    0.0000 N   0  0  0  0  0  0  0  0  0  0  0  0
   34.3894  -33.4312    0.0000 C   0  0  0  0  0  0  0  0  0  0  0  0
   34.8044  -34.1443    0.0000 C   0  0  0  0  0  0  0  0  0  0  0  0
   34.3927  -34.8581    0.0000 C   0  0  0  0  0  0  0  0  0  0  0  0
   34.8069  -35.5706    0.0000 C   0  0  0  0  0  0  0  0  0  0  0  0
   35.6327  -35.5683    0.0000 C   0  0  0  0  0  0  0  0  0  0  0  0
   36.0427  -34.8475    0.0000 C   0  0  0  0  0  0  0  0  0  0  0  0
   35.6261  -34.1378    0.0000 C   0  0  0  0  0  0  0  0  0  0  0  0
   36.0486  -36.2809    0.0000 Cl  0  0  0  0  0  0  0  0  0  0  0  0
   36.0332  -33.4202    0.0000 Cl  0  0  0  0  0  0  0  0  0  0  0  0
  1  2  1  0  0  0  0
  2  3  2  0  0  0  0
  3  4  1  0  0  0  0
  4  5  1  0  0  0  0
  5  1  2  0  0  0  0
  3  6  1  0  0  0  0
  6  7  2  0  0  0  0
  6  8  1  0  0  0  0
  8  9  1  0  0  0  0
  9 10  1  0  0  0  0
  5 11  1  0  0  0  0
 11 12  2  0  0  0  0
 12 13  1  0  0  0  0
 13 14  2  0  0  0  0
 14 15  1  0  0  0  0
 15 16  2  0  0  0  0
 16 11  1  0  0  0  0
  2 17  1  0  0  0  0
 17 18  1  0  0  0  0
 17 22  1  0  0  0  0
 18 19  1  0  0  0  0
 19 20  1  0  0  0  0
 20 21  1  0  0  0  0
 21 22  1  0  0  0  0
 20 23  1  0  0  0  0
 23 24  1  0  0  0  0
 24 25  1  0  0  0  0
 25 26  2  0  0  0  0
 26 27  1  0  0  0  0
 27 28  2  0  0  0  0
 28 29  1  0  0  0  0
 29 30  2  0  0  0  0
 30 25  1  0  0  0  0
 28 31  1  0  0  0  0
 30 32  1  0  0  0  0
M  END
> <From> 
www.bindingDB.org

> <BindingDB Reactant_set_id>
51083544

> <Ligand InChI>
InChI=1S/C23H24Cl2N4O2S/c1-2-31-23(30)20-21(28-22(32-20)15-5-9-26-10-6-15)29-11-7-18(8-12-29)27-14-16-3-4-17(24)13-19(16)25/h3-6,9-10,13,18,27H,2,7-8,11-12,14H2,1H3

> <Ligand InChI Key>
FFGQQHNVACOLOO-UHFFFAOYSA-N

> <BindingDB MonomerID>
50443322

> <BindingDB Ligand Name>
CHEMBL3088272

> <Target Name Assigned by Curator or DataSource>
DNA gyrase subunit B

> <Target Source Organism According to Curator or DataSource>


> <Ki (nM)>


> <IC50 (nM)>
 27120

> <Kd (nM)>


> <EC50 (nM)>


> <kon (M-1-s-1)>


> <koff (s-1)>


> <pH>


> <Temp C>


> <Curation/DataSource>
ChEMBL

> <Article DOI>
10.1016/j.ejmech.2013.09.025

> <PMID>
24148991

> <PubChem AID>


> <Patent Number>


> <Authors>
Jeankumar, VU; Renuka, J; Santosh, P; Soni, V; Sridevi, JP; Suryadevara, P; Yogeeswari, P; Sriram, D

> <Institution>
Birla Institute of Technology&amp; Science-Pilani

> <Link to Ligand in BindingDB>
http://www.bindingdb.org/bind/chemsearch/marvin/MolStructure.jsp?monomerid=50443322

> <Link to Ligand-Target Pair in BindingDB>
http://www.bindingdb.org/jsp/dbsearch/PrimarySearch_ki.jsp?energyterm=kJ/mole&tag=pol&polymerid=50006452&target=DNA+gyrase+subunit+B&column=ki&startPg=0&Increment=50&submit=Search

> <Link to Ligand-Target Pair in BindingDB>
http://www.bindingdb.org/jsp/dbsearch/PrimarySearch_ki.jsp?energyterm=kJ/mole&tag=r21&monomerid=50443322&enzyme=DNA+gyrase+subunit+B&column=ki&startPg=0&Increment=50&submit=Search

> <Ligand HET ID in PDB>


> <PDB ID(s) for Ligand-Target Complex>


> <PubChem CID>
76313631

> <PubChem SID>
194941218

> <ChEBI ID of Ligand>


> <ChEMBL ID of Ligand>
CHEMBL3088272

> <DrugBank ID of Ligand>


> <IUPHAR_GRAC ID of Ligand>


> <KEGG ID of Ligand>


> <ZINC ID of Ligand>


> <Number of Protein Chains in Target (>1 implies a multichain complex)>
1

> <BindingDB Target Chain Sequence>
MAAQKNNAPKEYGADSITILEGLEAVRKRPGMYIGSTGERGLHHLIWEVVDNAVDEAMAGFATRVDVKIHADGSVEVRDDGRGIPVEMHATGMPTIDVVMTQLHAGGKFDGETYAVSGGLHGVGVSVVNALSTRLEATVLRDGYEWFQYYDRSVPGKLKQGGETKETGTTIRFWADPEIFETTDYNFETVARRLQEMAFLNKGLTIELTDERVTAEEVVDDVVKDTAEAPKTADEKAAEATGPSKVKHRVFHYPGGLVDYVKHINRTKTPIQQSIIDFDGKGPGHEVEIAMQWNAGYSESVHTFANTINTHEGGTHEEGFRAALTSVVNRYAKDKKLLKDKDPNLTGDDIREGLAAVISVKVAEPQFEGQTKTKLGNTEVKSFVQKICNEQLQHWFEANPAEAKTVVNKAVSSAQARIAARKARELVRRKSATDIGGLPGKLADCRSTDPSKSELYVVEGDSAGGSAKSGRDSMFQAILPLRGKIINVEKARIDRVLKNTEVQSIITALGTGIHDEFDISKLRYHKIVLMADADVDGQHISTLLLTLLFRFMKPLVENGHIFLAQPPLYKLKWQRSEPEFAYSDRERDGLLEAGRAAGKKINVDDGIQRYKGLGEMDAKELWETTMDPSVRVLRQVTLDDAAAADELFSILMGEDVEARRSFITRNAKDVRFLDV

> <PDB ID(s) of Target Chain>
4BAE

> <UniProt (SwissProt) Recommended Name of Target Chain>
DNA gyrase subunit B

> <UniProt (SwissProt) Entry Name of Target Chain>
GYRB_MYCSM

> <UniProt (SwissProt) Primary ID of Target Chain>
P0C559

> <UniProt (SwissProt) Secondary ID(s) of Target Chain>
P48355,Q59555

> <UniProt (SwissProt) Alternative ID(s) of Target Chain>


> <UniProt (TrEMBL) Submitted Name of Target Chain>


> <UniProt (TrEMBL) Entry Name of Target Chain>


> <UniProt (TrEMBL) Primary ID of Target Chain>


> <UniProt (TrEMBL) Secondary ID(s) of Target Chain>


> <UniProt (TrEMBL) Alternative ID(s) of Target Chain>


$$$$

  Mrv0541 03201611132D          

 32 35  0  0  0  0            999 V2000
   11.8735  -13.2804    0.0000 O   0  0  0  0  0  0  0  0  0  0  0  0
   12.3541  -12.6150    0.0000 C   0  0  0  0  0  0  0  0  0  0  0  0
   11.8735  -11.9495    0.0000 C   0  0  0  0  0  0  0  0  0  0  0  0
   11.0847  -12.2025    0.0000 C   0  0  0  0  0  0  0  0  0  0  0  0
   11.0847  -13.0274    0.0000 C   0  0  0  0  0  0  0  0  0  0  0  0
   10.3730  -11.7900    0.0000 C   0  0  0  0  0  0  0  0  0  0  0  0
    9.6571  -12.2025    0.0000 C   0  0  0  0  0  0  0  0  0  0  0  0
    9.6571  -13.0274    0.0000 C   0  0  0  0  0  0  0  0  0  0  0  0
   10.3730  -13.4399    0.0000 C   0  0  0  0  0  0  0  0  0  0  0  0
   13.1791  -12.6150    0.0000 C   0  0  0  0  0  0  0  0  0  0  0  0
   13.5915  -13.3307    0.0000 O   0  0  0  0  0  0  0  0  0  0  0  0
   13.5915  -11.8991    0.0000 O   0  0  0  0  0  0  0  0  0  0  0  0
    8.9455  -11.7900    0.0000 N   0  0  0  0  0  0  0  0  0  0  0  0
    8.2296  -12.2025    0.0000 C   0  0  0  0  0  0  0  0  0  0  0  0
    7.5137  -11.7900    0.0000 C   0  0  0  0  0  0  0  0  0  0  0  0
    7.5137  -10.9650    0.0000 N   0  0  0  0  0  0  0  0  0  0  0  0
    8.2296  -10.5525    0.0000 C   0  0  0  0  0  0  0  0  0  0  0  0
    8.9455  -10.9650    0.0000 C   0  0  0  0  0  0  0  0  0  0  0  0
    6.8020  -10.5525    0.0000 C   0  0  0  0  0  0  0  0  0  0  0  0
    6.0861  -10.9650    0.0000 N   0  0  0  0  0  0  0  0  0  0  0  0
    6.8020   -9.7275    0.0000 S   0  0  0  0  0  0  0  0  0  0  0  0
    5.3704  -10.5525    0.0000 C   0  0  0  0  0  0  0  0  0  0  0  0
    4.6545  -10.9650    0.0000 C   0  0  0  0  0  0  0  0  0  0  0  0
    3.9428  -10.5525    0.0000 C   0  0  0  0  0  0  0  0  0  0  0  0
    3.9428   -9.7275    0.0000 C   0  0  0  0  0  0  0  0  0  0  0  0
    4.6545   -9.3150    0.0000 C   0  0  0  0  0  0  0  0  0  0  0  0
    5.3704   -9.7275    0.0000 C   0  0  0  0  0  0  0  0  0  0  0  0
    3.2269   -9.3150    0.0000 C   0  0  0  0  0  0  0  0  0  0  0  0
    3.2269   -8.4900    0.0000 O   0  0  0  0  0  0  0  0  0  0  0  0
    2.5153   -9.7275    0.0000 C   0  0  0  0  0  0  0  0  0  0  0  0
   14.4165  -11.8991    0.0000 C   0  0  0  0  0  0  0  0  0  0  0  0
   14.8290  -11.1874    0.0000 C   0  0  0  0  0  0  0  0  0  0  0  0
  1  2  4  0  0  0  0
  2  3  4  0  0  0  0
  3  4  4  0  0  0  0
  4  5  4  0  0  0  0
  1  5  4  0  0  0  0
  6  7  4  0  0  0  0
  7  8  4  0  0  0  0
  8  9  4  0  0  0  0
  5  9  4  0  0  0  0
  4  6  4  0  0  0  0
 10 11  2  0  0  0  0
 10 12  1  0  0  0  0
  2 10  1  0  0  0  0
 13 14  1  0  0  0  0
 14 15  1  0  0  0  0
 15 16  1  0  0  0  0
 16 17  1  0  0  0  0
 17 18  1  0  0  0  0
 13 18  1  0  0  0  0
 19 20  1  0  0  0  0
 19 21  2  0  0  0  0
 22 23  4  0  0  0  0
 23 24  4  0  0  0  0
 24 25  4  0  0  0  0
 25 26  4  0  0  0  0
 26 27  4  0  0  0  0
 22 27  4  0  0  0  0
 28 29  2  0  0  0  0
 28 30  1  0  0  0  0
 25 28  1  0  0  0  0
 20 22  1  0  0  0  0
 16 19  1  0  0  0  0
  7 13  1  0  0  0  0
 31 32  1  0  0  0  0
 12 31  1  0  0  0  0
M  END
> <From> 
www.bindingDB.org

> <BindingDB Reactant_set_id>
50254202

> <Ligand InChI>
InChI=1S/C24H25N3O4S/c1-3-30-23(29)22-15-18-14-20(8-9-21(18)31-22)26-10-12-27(13-11-26)24(32)25-19-6-4-17(5-7-19)16(2)28/h4-9,14-15H,3,10-13H2,1-2H3,(H,25,32)

> <Ligand InChI Key>
QNHYATCOTZIJKW-UHFFFAOYSA-N

> <BindingDB MonomerID>
50037090

> <BindingDB Ligand Name>
CHEMBL3355791

> <Target Name Assigned by Curator or DataSource>
DNA gyrase subunit B

> <Target Source Organism According to Curator or DataSource>


> <Ki (nM)>


> <IC50 (nM)>
 27340

> <Kd (nM)>


> <EC50 (nM)>


> <kon (M-1-s-1)>


> <koff (s-1)>


> <pH>


> <Temp C>


> <Curation/DataSource>
ChEMBL

> <Article DOI>
10.1016/j.bmc.2014.10.016

> <PMID>
25456076

> <PubChem AID>


> <Patent Number>


> <Authors>
Reddy, KI; Srihari, K; Renuka, J; Sree, KS; Chuppala, A; Jeankumar, VU; Sridevi, JP; Babu, KS; Yogeeswari, P; Sriram, D

> <Institution>
TBA

> <Link to Ligand in BindingDB>
http://www.bindingdb.org/bind/chemsearch/marvin/MolStructure.jsp?monomerid=50037090

> <Link to Ligand-Target Pair in BindingDB>
http://www.bindingdb.org/jsp/dbsearch/PrimarySearch_ki.jsp?energyterm=kJ/mole&tag=pol&polymerid=50006452&target=DNA+gyrase+subunit+B&column=ki&startPg=0&Increment=50&submit=Search

> <Link to Ligand-Target Pair in BindingDB>
http://www.bindingdb.org/jsp/dbsearch/PrimarySearch_ki.jsp?energyterm=kJ/mole&tag=r21&monomerid=50037090&enzyme=DNA+gyrase+subunit+B&column=ki&startPg=0&Increment=50&submit=Search

> <Ligand HET ID in PDB>


> <PDB ID(s) for Ligand-Target Complex>


> <PubChem CID>
118721091

> <PubChem SID>
312528643

> <ChEBI ID of Ligand>


> <ChEMBL ID of Ligand>


> <DrugBank ID of Ligand>


> <IUPHAR_GRAC ID of Ligand>


> <KEGG ID of Ligand>


> <ZINC ID of Ligand>


> <Number of Protein Chains in Target (>1 implies a multichain complex)>
1

> <BindingDB Target Chain Sequence>
MAAQKNNAPKEYGADSITILEGLEAVRKRPGMYIGSTGERGLHHLIWEVVDNAVDEAMAGFATRVDVKIHADGSVEVRDDGRGIPVEMHATGMPTIDVVMTQLHAGGKFDGETYAVSGGLHGVGVSVVNALSTRLEATVLRDGYEWFQYYDRSVPGKLKQGGETKETGTTIRFWADPEIFETTDYNFETVARRLQEMAFLNKGLTIELTDERVTAEEVVDDVVKDTAEAPKTADEKAAEATGPSKVKHRVFHYPGGLVDYVKHINRTKTPIQQSIIDFDGKGPGHEVEIAMQWNAGYSESVHTFANTINTHEGGTHEEGFRAALTSVVNRYAKDKKLLKDKDPNLTGDDIREGLAAVISVKVAEPQFEGQTKTKLGNTEVKSFVQKICNEQLQHWFEANPAEAKTVVNKAVSSAQARIAARKARELVRRKSATDIGGLPGKLADCRSTDPSKSELYVVEGDSAGGSAKSGRDSMFQAILPLRGKIINVEKARIDRVLKNTEVQSIITALGTGIHDEFDISKLRYHKIVLMADADVDGQHISTLLLTLLFRFMKPLVENGHIFLAQPPLYKLKWQRSEPEFAYSDRERDGLLEAGRAAGKKINVDDGIQRYKGLGEMDAKELWETTMDPSVRVLRQVTLDDAAAADELFSILMGEDVEARRSFITRNAKDVRFLDV

> <PDB ID(s) of Target Chain>
4BAE

> <UniProt (SwissProt) Recommended Name of Target Chain>
DNA gyrase subunit B

> <UniProt (SwissProt) Entry Name of Target Chain>
GYRB_MYCSM

> <UniProt (SwissProt) Primary ID of Target Chain>
P0C559

> <UniProt (SwissProt) Secondary ID(s) of Target Chain>
P48355,Q59555

> <UniProt (SwissProt) Alternative ID(s) of Target Chain>


> <UniProt (TrEMBL) Submitted Name of Target Chain>


> <UniProt (TrEMBL) Entry Name of Target Chain>


> <UniProt (TrEMBL) Primary ID of Target Chain>


> <UniProt (TrEMBL) Secondary ID(s) of Target Chain>


> <UniProt (TrEMBL) Alternative ID(s) of Target Chain>


$$$$

  SciTegic04201612532D

 34 37  0  0  0  0            999 V2000
   -1.2964    1.4973    0.0000 N   0  0
   -2.6111    0.7486    0.0000 C   0  0
   -2.6111   -0.7486    0.0000 C   0  0
   -1.2964   -1.4973    0.0000 C   0  0
    0.0000   -0.7486    0.0000 C   0  0
    1.2964   -1.4973    0.0000 C   0  0
    2.5929   -0.7486    0.0000 C   0  0
    2.5929    0.7486    0.0000 C   0  0
    1.2964    1.4973    0.0000 C   0  0
    0.0000    0.7486    0.0000 C   0  0
   -3.9122   -1.4966    0.0000 C   0  0
   -4.9506   -0.8952    0.0000 O   0  0
   -1.2907   -2.9981    0.0000 N   0  0
   -2.5870   -3.7544    0.0000 C   0  0
   -2.5835   -5.2544    0.0000 C   0  0
   -3.8807   -6.0076    0.0000 C   0  0
   -5.1815   -5.2608    0.0000 C   0  0
   -5.1852   -3.7608    0.0000 C   0  0
   -3.8880   -3.0076    0.0000 C   0  0
   -6.4810   -6.0117    0.0000 O   0  0
   -7.7815   -5.2626    0.0000 C   0  0
   -9.0810   -6.0135    0.0000 C   0  0
  -10.3815   -5.2644    0.0000 C   0  0
  -14.2755   -7.5217    0.0000 O   0  0
  -14.2791   -6.0217    0.0000 C   0  0
  -12.9819   -5.2686    0.0000 C   0  0
  -11.6810   -6.0154    0.0000 N   0  0
  -11.6774   -7.5154    0.0000 C   0  0
  -12.9746   -8.2686    0.0000 C   0  0
   -3.9138   -2.4966    0.0000 O   0  0
    3.8926   -1.4991    0.0000 C   0  0
    3.8934   -2.6991    0.0000 F   0  0
    4.9317   -0.8987    0.0000 F   0  0
    4.9322   -2.0986    0.0000 F   0  0
  1  2  2  0
  2  3  1  0
  3  4  2  0
  4  5  1  0
  5  6  2  0
  6  7  1  0
  7  8  2  0
  8  9  1  0
  9 10  2  0
  1 10  1  0
  5 10  1  0
 11 12  2  0
  3 11  1  0
 14 15  1  0
 15 16  2  0
 16 17  1  0
 17 18  2  0
 18 19  1  0
 14 19  2  0
 21 22  1  0
 22 23  1  0
 20 21  1  0
 24 25  1  0
 25 26  1  0
 26 27  1  0
 27 28  1  0
 28 29  1  0
 24 29  1  0
 23 27  1  0
 17 20  1  0
 13 14  1  0
  4 13  1  0
 11 30  1  0
 31 32  1  0
 31 33  1  0
 31 34  1  0
  7 31  1  0
M  END
> <From> 
www.bindingDB.org

> <BindingDB Reactant_set_id>
50426759

> <Ligand InChI>
InChI=1S/C24H24F3N3O4/c25-24(26,27)16-2-7-21-19(14-16)22(20(15-28-21)23(31)32)29-17-3-5-18(6-4-17)34-11-1-8-30-9-12-33-13-10-30/h2-7,14-15H,1,8-13H2,(H,28,29)(H,31,32)

> <Ligand InChI Key>
JZXPKAMHVFNATC-UHFFFAOYSA-N

> <BindingDB MonomerID>
50126183

> <BindingDB Ligand Name>
CHEMBL3628458

> <Target Name Assigned by Curator or DataSource>
DNA gyrase subunit B

> <Target Source Organism According to Curator or DataSource>


> <Ki (nM)>


> <IC50 (nM)>
 27830

> <Kd (nM)>


> <EC50 (nM)>


> <kon (M-1-s-1)>


> <koff (s-1)>


> <pH>


> <Temp C>


> <Curation/DataSource>
ChEMBL

> <Article DOI>
10.1016/j.ejmech.2015.06.032

> <PMID>
26318054

> <PubChem AID>


> <Patent Number>


> <Authors>
Medapi, B; Suryadevara, P; Renuka, J; Sridevi, JP; Yogeeswari, P; Sriram, D

> <Institution>
Birla Institute of Technology&amp;Science

> <Link to Ligand in BindingDB>
http://www.bindingdb.org/bind/chemsearch/marvin/MolStructure.jsp?monomerid=50126183

> <Link to Ligand-Target Pair in BindingDB>
http://www.bindingdb.org/jsp/dbsearch/PrimarySearch_ki.jsp?energyterm=kJ/mole&tag=pol&polymerid=50006452&target=DNA+gyrase+subunit+B&column=ki&startPg=0&Increment=50&submit=Search

> <Link to Ligand-Target Pair in BindingDB>
http://www.bindingdb.org/jsp/dbsearch/PrimarySearch_ki.jsp?energyterm=kJ/mole&tag=r21&monomerid=50126183&enzyme=DNA+gyrase+subunit+B&column=ki&startPg=0&Increment=50&submit=Search

> <Ligand HET ID in PDB>


> <PDB ID(s) for Ligand-Target Complex>


> <PubChem CID>
122193472

> <PubChem SID>
321902390

> <ChEBI ID of Ligand>


> <ChEMBL ID of Ligand>


> <DrugBank ID of Ligand>


> <IUPHAR_GRAC ID of Ligand>


> <KEGG ID of Ligand>


> <ZINC ID of Ligand>


> <Number of Protein Chains in Target (>1 implies a multichain complex)>
1

> <BindingDB Target Chain Sequence>
MAAQKNNAPKEYGADSITILEGLEAVRKRPGMYIGSTGERGLHHLIWEVVDNAVDEAMAGFATRVDVKIHADGSVEVRDDGRGIPVEMHATGMPTIDVVMTQLHAGGKFDGETYAVSGGLHGVGVSVVNALSTRLEATVLRDGYEWFQYYDRSVPGKLKQGGETKETGTTIRFWADPEIFETTDYNFETVARRLQEMAFLNKGLTIELTDERVTAEEVVDDVVKDTAEAPKTADEKAAEATGPSKVKHRVFHYPGGLVDYVKHINRTKTPIQQSIIDFDGKGPGHEVEIAMQWNAGYSESVHTFANTINTHEGGTHEEGFRAALTSVVNRYAKDKKLLKDKDPNLTGDDIREGLAAVISVKVAEPQFEGQTKTKLGNTEVKSFVQKICNEQLQHWFEANPAEAKTVVNKAVSSAQARIAARKARELVRRKSATDIGGLPGKLADCRSTDPSKSELYVVEGDSAGGSAKSGRDSMFQAILPLRGKIINVEKARIDRVLKNTEVQSIITALGTGIHDEFDISKLRYHKIVLMADADVDGQHISTLLLTLLFRFMKPLVENGHIFLAQPPLYKLKWQRSEPEFAYSDRERDGLLEAGRAAGKKINVDDGIQRYKGLGEMDAKELWETTMDPSVRVLRQVTLDDAAAADELFSILMGEDVEARRSFITRNAKDVRFLDV

> <PDB ID(s) of Target Chain>
4BAE

> <UniProt (SwissProt) Recommended Name of Target Chain>
DNA gyrase subunit B

> <UniProt (SwissProt) Entry Name of Target Chain>
GYRB_MYCSM

> <UniProt (SwissProt) Primary ID of Target Chain>
P0C559

> <UniProt (SwissProt) Secondary ID(s) of Target Chain>
P48355,Q59555

> <UniProt (SwissProt) Alternative ID(s) of Target Chain>


> <UniProt (TrEMBL) Submitted Name of Target Chain>


> <UniProt (TrEMBL) Entry Name of Target Chain>


> <UniProt (TrEMBL) Primary ID of Target Chain>


> <UniProt (TrEMBL) Secondary ID(s) of Target Chain>


> <UniProt (TrEMBL) Alternative ID(s) of Target Chain>


$$$$

  Mrv0541 04171609262D          

 25 27  0  0  0  0            999 V2000
    0.7145   -0.4125    0.0000 C   0  0  0  0  0  0  0  0  0  0  0  0
    0.7145    0.4125    0.0000 C   0  0  0  0  0  0  0  0  0  0  0  0
    0.0000    0.8250    0.0000 C   0  0  0  0  0  0  0  0  0  0  0  0
   -0.7145    0.4125    0.0000 C   0  0  0  0  0  0  0  0  0  0  0  0
   -0.7145   -0.4125    0.0000 C   0  0  0  0  0  0  0  0  0  0  0  0
    0.0000   -0.8250    0.0000 C   0  0  0  0  0  0  0  0  0  0  0  0
   -1.4293   -0.8252    0.0000 C   0  0  0  0  0  0  0  0  0  0  0  0
   -2.1731   -0.4848    0.0000 S   0  0  0  0  0  0  0  0  0  0  0  0
   -2.7242   -1.0988    0.0000 C   0  0  0  0  0  0  0  0  0  0  0  0
   -2.3106   -1.8127    0.0000 C   0  0  0  0  0  0  0  0  0  0  0  0
   -1.5039   -1.6399    0.0000 C   0  0  0  0  0  0  0  0  0  0  0  0
   -2.6430   -2.5667    0.0000 C   0  0  0  0  0  0  0  0  0  0  0  0
   -2.2534   -3.0995    0.0000 O   0  0  0  0  0  0  0  0  0  0  0  0
   -3.2991   -2.6378    0.0000 N   0  0  0  0  0  0  0  0  0  0  0  0
   -3.5437   -1.0123    0.0000 N   0  0  0  0  0  0  0  0  0  0  0  0
   -3.8796   -0.2582    0.0000 C   0  0  0  0  0  0  0  0  0  0  0  0
   -4.7005   -0.1715    0.0000 N   0  0  0  0  0  0  0  0  0  0  0  0
   -3.4916    0.2757    0.0000 S   0  0  0  0  0  0  0  0  0  0  0  0
   -5.0363    0.5825    0.0000 C   0  0  0  0  0  0  0  0  0  0  0  0
   -5.8573    0.6692    0.0000 C   0  0  0  0  0  0  0  0  0  0  0  0
   -6.1940    1.4223    0.0000 C   0  0  0  0  0  0  0  0  0  0  0  0
   -7.0146    1.5073    0.0000 C   0  0  0  0  0  0  0  0  0  0  0  0
   -7.4985    0.8391    0.0000 C   0  0  0  0  0  0  0  0  0  0  0  0
   -7.1618    0.0860    0.0000 C   0  0  0  0  0  0  0  0  0  0  0  0
   -6.3412    0.0010    0.0000 C   0  0  0  0  0  0  0  0  0  0  0  0
  1  2  4  0  0  0  0
  2  3  4  0  0  0  0
  3  4  4  0  0  0  0
  4  5  4  0  0  0  0
  5  6  4  0  0  0  0
  6  1  4  0  0  0  0
  7  8  4  0  0  0  0
  8  9  4  0  0  0  0
  9 10  4  0  0  0  0
 10 11  4  0  0  0  0
 11  7  4  0  0  0  0
  5  7  1  0  0  0  0
 10 12  1  0  0  0  0
 12 13  2  0  0  0  0
 12 14  1  0  0  0  0
  9 15  1  0  0  0  0
 15 16  1  0  0  0  0
 16 17  1  0  0  0  0
 16 18  2  0  0  0  0
 17 19  1  0  0  0  0
 20 19  1  0  0  0  0
 20 21  4  0  0  0  0
 21 22  4  0  0  0  0
 22 23  4  0  0  0  0
 23 24  4  0  0  0  0
 24 25  4  0  0  0  0
 25 20  4  0  0  0  0
M  END
> <From> 
www.bindingDB.org

> <BindingDB Reactant_set_id>
50302333

> <Ligand InChI>
InChI=1S/C19H17N3OS2/c20-17(23)15-11-16(14-9-5-2-6-10-14)25-18(15)22-19(24)21-12-13-7-3-1-4-8-13/h1-11H,12H2,(H2,20,23)(H2,21,22,24)

> <Ligand InChI Key>
MQPGTJRZZDMRLV-UHFFFAOYSA-N

> <BindingDB MonomerID>
50066097

> <BindingDB Ligand Name>
CHEMBL3402943

> <Target Name Assigned by Curator or DataSource>
DNA gyrase subunit B

> <Target Source Organism According to Curator or DataSource>


> <Ki (nM)>


> <IC50 (nM)>
 28250

> <Kd (nM)>


> <EC50 (nM)>


> <kon (M-1-s-1)>


> <koff (s-1)>


> <pH>


> <Temp C>
25.00

> <Curation/DataSource>
ChEMBL

> <Article DOI>
10.1016/j.bmc.2015.02.032

> <PMID>
25766629

> <PubChem AID>


> <Patent Number>


> <Authors>
Saxena, S; Samala, G; Renuka, J; Sridevi, JP; Yogeeswari, P; Sriram, D

> <Institution>
Birla Institute of Technology&amp; Science-Pilani

> <Link to Ligand in BindingDB>
http://www.bindingdb.org/bind/chemsearch/marvin/MolStructure.jsp?monomerid=50066097

> <Link to Ligand-Target Pair in BindingDB>
http://www.bindingdb.org/jsp/dbsearch/PrimarySearch_ki.jsp?energyterm=kJ/mole&tag=pol&polymerid=50006452&target=DNA+gyrase+subunit+B&column=ki&startPg=0&Increment=50&submit=Search

> <Link to Ligand-Target Pair in BindingDB>
http://www.bindingdb.org/jsp/dbsearch/PrimarySearch_ki.jsp?energyterm=kJ/mole&tag=r21&monomerid=50066097&enzyme=DNA+gyrase+subunit+B&column=ki&startPg=0&Increment=50&submit=Search

> <Ligand HET ID in PDB>


> <PDB ID(s) for Ligand-Target Complex>


> <PubChem CID>
118729468

> <PubChem SID>
313071620

> <ChEBI ID of Ligand>


> <ChEMBL ID of Ligand>


> <DrugBank ID of Ligand>


> <IUPHAR_GRAC ID of Ligand>


> <KEGG ID of Ligand>


> <ZINC ID of Ligand>


> <Number of Protein Chains in Target (>1 implies a multichain complex)>
1

> <BindingDB Target Chain Sequence>
MAAQKNNAPKEYGADSITILEGLEAVRKRPGMYIGSTGERGLHHLIWEVVDNAVDEAMAGFATRVDVKIHADGSVEVRDDGRGIPVEMHATGMPTIDVVMTQLHAGGKFDGETYAVSGGLHGVGVSVVNALSTRLEATVLRDGYEWFQYYDRSVPGKLKQGGETKETGTTIRFWADPEIFETTDYNFETVARRLQEMAFLNKGLTIELTDERVTAEEVVDDVVKDTAEAPKTADEKAAEATGPSKVKHRVFHYPGGLVDYVKHINRTKTPIQQSIIDFDGKGPGHEVEIAMQWNAGYSESVHTFANTINTHEGGTHEEGFRAALTSVVNRYAKDKKLLKDKDPNLTGDDIREGLAAVISVKVAEPQFEGQTKTKLGNTEVKSFVQKICNEQLQHWFEANPAEAKTVVNKAVSSAQARIAARKARELVRRKSATDIGGLPGKLADCRSTDPSKSELYVVEGDSAGGSAKSGRDSMFQAILPLRGKIINVEKARIDRVLKNTEVQSIITALGTGIHDEFDISKLRYHKIVLMADADVDGQHISTLLLTLLFRFMKPLVENGHIFLAQPPLYKLKWQRSEPEFAYSDRERDGLLEAGRAAGKKINVDDGIQRYKGLGEMDAKELWETTMDPSVRVLRQVTLDDAAAADELFSILMGEDVEARRSFITRNAKDVRFLDV

> <PDB ID(s) of Target Chain>
4BAE

> <UniProt (SwissProt) Recommended Name of Target Chain>
DNA gyrase subunit B

> <UniProt (SwissProt) Entry Name of Target Chain>
GYRB_MYCSM

> <UniProt (SwissProt) Primary ID of Target Chain>
P0C559

> <UniProt (SwissProt) Secondary ID(s) of Target Chain>
P48355,Q59555

> <UniProt (SwissProt) Alternative ID(s) of Target Chain>


> <UniProt (TrEMBL) Submitted Name of Target Chain>


> <UniProt (TrEMBL) Entry Name of Target Chain>


> <UniProt (TrEMBL) Primary ID of Target Chain>


> <UniProt (TrEMBL) Secondary ID(s) of Target Chain>


> <UniProt (TrEMBL) Alternative ID(s) of Target Chain>


$$$$

  SciTegic10231716222D

 36 40  0  0  0  0            999 V2000
    2.2851   -1.9686    0.0000 C   0  0
    2.2839   -2.7882    0.0000 C   0  0
    2.9920   -3.1972    0.0000 C   0  0
    2.9902   -1.5598    0.0000 C   0  0
    3.6988   -1.9651    0.0000 C   0  0
    3.7036   -2.7882    0.0000 C   0  0
    4.4880   -3.0380    0.0000 N   0  0
    4.9680   -2.3692    0.0000 C   0  0
    4.4802   -1.7062    0.0000 C   0  0
    4.7281   -0.9275    0.0000 O   0  0
    5.7852   -2.3644    0.0000 O   0  0
    4.7451   -3.8137    0.0000 C   0  0
    4.2018   -4.4242    0.0000 C   0  0
    4.4588   -5.1999    0.0000 N   0  0
    3.9184   -5.8087    0.0000 C   0  0
    4.1725   -6.5816    0.0000 C   0  0
    4.9723   -6.7511    0.0000 N   0  0
    5.5176   -6.1412    0.0000 C   0  0
    5.2632   -5.3619    0.0000 C   0  0
    5.2264   -7.5278    0.0000 N   0  0
    6.0261   -7.6960    0.0000 C   0  0
    6.5716   -7.0876    0.0000 C   0  0
    7.3704   -7.2596    0.0000 C   0  0
    7.9157   -6.6520    0.0000 C   0  0
    7.6618   -5.8744    0.0000 C   0  0
    6.8574   -5.7078    0.0000 C   0  0
    6.3156   -6.3167    0.0000 C   0  0
    7.6225   -8.0370    0.0000 O   0  0
    8.4218   -8.2073    0.0000 C   0  0
    8.9689   -7.6003    0.0000 C   0  0
    9.7665   -7.7735    0.0000 C   0  0
   10.3134   -7.1673    0.0000 C   0  0
   10.0614   -6.3890    0.0000 C   0  0
    9.2575   -6.2204    0.0000 C   0  0
    8.7141   -6.8279    0.0000 C   0  0
    1.5773   -1.5602    0.0000 C   0  0
  1  2  2  0
  2  3  1  0
  3  6  2  0
  5  4  2  0
  4  1  1  0
  5  6  1  0
  6  7  1  0
  7  8  1  0
  8  9  1  0
  9  5  1  0
  9 10  2  0
  8 11  2  0
  7 12  1  0
 12 13  1  0
 13 14  1  0
 14 15  1  0
 14 19  1  0
 15 16  1  0
 16 17  1  0
 17 18  1  0
 18 19  1  0
 17 20  1  0
 20 21  1  0
 21 22  1  0
 22 23  2  0
 23 24  1  0
 24 25  2  0
 25 26  1  0
 26 27  2  0
 27 22  1  0
 23 28  1  0
 28 29  1  0
 29 30  1  0
 30 31  2  0
 31 32  1  0
 32 33  2  0
 33 34  1  0
 34 35  2  0
 35 30  1  0
  1 36  1  0
M  END
> <From> 
www.bindingDB.org

> <BindingDB Reactant_set_id>
50543797

> <Ligand InChI>
InChI=1S/C29H32N4O3/c1-22-11-12-26-25(19-22)28(34)29(35)33(26)18-15-31-13-16-32(17-14-31)30-20-24-9-5-6-10-27(24)36-21-23-7-3-2-4-8-23/h2-12,19,30H,13-18,20-21H2,1H3

> <Ligand InChI Key>
MIQCSJKUKHKRGU-UHFFFAOYSA-N

> <BindingDB MonomerID>
50208265

> <BindingDB Ligand Name>
CHEMBL3884787

> <Target Name Assigned by Curator or DataSource>
DNA gyrase subunit B

> <Target Source Organism According to Curator or DataSource>


> <Ki (nM)>


> <IC50 (nM)>
 28300

> <Kd (nM)>


> <EC50 (nM)>


> <kon (M-1-s-1)>


> <koff (s-1)>


> <pH>


> <Temp C>


> <Curation/DataSource>
ChEMBL

> <Article DOI>
10.1016/j.ejmech.2016.08.034

> <PMID>
27569197

> <PubChem AID>


> <Patent Number>


> <Authors>
Chaudhari, K; Surana, S; Jain, P; Patel, HM

> <Institution>
R. C. Patel Institute of Pharmaceutical Education and Research

> <Link to Ligand in BindingDB>
http://www.bindingdb.org/bind/chemsearch/marvin/MolStructure.jsp?monomerid=50208265

> <Link to Ligand-Target Pair in BindingDB>
http://www.bindingdb.org/jsp/dbsearch/PrimarySearch_ki.jsp?energyterm=kJ/mole&tag=pol&polymerid=50006452&target=DNA+gyrase+subunit+B&column=ki&startPg=0&Increment=50&submit=Search

> <Link to Ligand-Target Pair in BindingDB>
http://www.bindingdb.org/jsp/dbsearch/PrimarySearch_ki.jsp?energyterm=kJ/mole&tag=r21&monomerid=50208265&enzyme=DNA+gyrase+subunit+B&column=ki&startPg=0&Increment=50&submit=Search

> <Ligand HET ID in PDB>


> <PDB ID(s) for Ligand-Target Complex>


> <PubChem CID>
134131161

> <PubChem SID>
375981958

> <ChEBI ID of Ligand>


> <ChEMBL ID of Ligand>


> <DrugBank ID of Ligand>


> <IUPHAR_GRAC ID of Ligand>


> <KEGG ID of Ligand>


> <ZINC ID of Ligand>


> <Number of Protein Chains in Target (>1 implies a multichain complex)>
1

> <BindingDB Target Chain Sequence>
MAAQKNNAPKEYGADSITILEGLEAVRKRPGMYIGSTGERGLHHLIWEVVDNAVDEAMAGFATRVDVKIHADGSVEVRDDGRGIPVEMHATGMPTIDVVMTQLHAGGKFDGETYAVSGGLHGVGVSVVNALSTRLEATVLRDGYEWFQYYDRSVPGKLKQGGETKETGTTIRFWADPEIFETTDYNFETVARRLQEMAFLNKGLTIELTDERVTAEEVVDDVVKDTAEAPKTADEKAAEATGPSKVKHRVFHYPGGLVDYVKHINRTKTPIQQSIIDFDGKGPGHEVEIAMQWNAGYSESVHTFANTINTHEGGTHEEGFRAALTSVVNRYAKDKKLLKDKDPNLTGDDIREGLAAVISVKVAEPQFEGQTKTKLGNTEVKSFVQKICNEQLQHWFEANPAEAKTVVNKAVSSAQARIAARKARELVRRKSATDIGGLPGKLADCRSTDPSKSELYVVEGDSAGGSAKSGRDSMFQAILPLRGKIINVEKARIDRVLKNTEVQSIITALGTGIHDEFDISKLRYHKIVLMADADVDGQHISTLLLTLLFRFMKPLVENGHIFLAQPPLYKLKWQRSEPEFAYSDRERDGLLEAGRAAGKKINVDDGIQRYKGLGEMDAKELWETTMDPSVRVLRQVTLDDAAAADELFSILMGEDVEARRSFITRNAKDVRFLDV

> <PDB ID(s) of Target Chain>
4BAE

> <UniProt (SwissProt) Recommended Name of Target Chain>
DNA gyrase subunit B

> <UniProt (SwissProt) Entry Name of Target Chain>
GYRB_MYCSM

> <UniProt (SwissProt) Primary ID of Target Chain>
P0C559

> <UniProt (SwissProt) Secondary ID(s) of Target Chain>
P48355,Q59555

> <UniProt (SwissProt) Alternative ID(s) of Target Chain>


> <UniProt (TrEMBL) Submitted Name of Target Chain>


> <UniProt (TrEMBL) Entry Name of Target Chain>


> <UniProt (TrEMBL) Primary ID of Target Chain>


> <UniProt (TrEMBL) Secondary ID(s) of Target Chain>


> <UniProt (TrEMBL) Alternative ID(s) of Target Chain>


$$$$

  SciTegic04201612532D

 33 36  0  0  0  0            999 V2000
   -1.2964    1.4973    0.0000 N   0  0
   -2.6111    0.7486    0.0000 C   0  0
   -2.6111   -0.7486    0.0000 C   0  0
   -1.2964   -1.4973    0.0000 C   0  0
    0.0000   -0.7486    0.0000 C   0  0
    1.2964   -1.4973    0.0000 C   0  0
    2.5929   -0.7486    0.0000 C   0  0
    2.5929    0.7486    0.0000 C   0  0
    1.2964    1.4973    0.0000 C   0  0
    0.0000    0.7486    0.0000 C   0  0
   -3.9122   -1.4966    0.0000 C   0  0
   -3.9138   -2.4966    0.0000 O   0  0
   -5.2109   -0.7445    0.0000 N   0  0
   -1.2907   -2.9981    0.0000 N   0  0
   -2.5870   -3.7544    0.0000 C   0  0
   -2.5835   -5.2544    0.0000 C   0  0
   -3.8807   -6.0076    0.0000 C   0  0
   -5.1815   -5.2608    0.0000 C   0  0
   -5.1852   -3.7608    0.0000 C   0  0
   -3.8880   -3.0076    0.0000 C   0  0
   -6.4810   -6.0117    0.0000 O   0  0
   -7.7815   -5.2626    0.0000 C   0  0
   -9.0810   -6.0135    0.0000 C   0  0
  -10.3815   -5.2644    0.0000 C   0  0
  -14.2755   -7.5217    0.0000 N   0  0
  -14.2791   -6.0217    0.0000 C   0  0
  -12.9819   -5.2686    0.0000 C   0  0
  -11.6810   -6.0154    0.0000 N   0  0
  -11.6774   -7.5154    0.0000 C   0  0
  -12.9746   -8.2686    0.0000 C   0  0
   -6.2513   -1.3425    0.0000 N   0  0
  -15.5719   -8.2779    0.0000 C   0  0
  -15.5672   -9.4779    0.0000 C   0  0
  1  2  2  0
  2  3  1  0
  3  4  2  0
  4  5  1  0
  5  6  2  0
  6  7  1  0
  7  8  2  0
  8  9  1  0
  9 10  2  0
  1 10  1  0
  5 10  1  0
 11 12  2  0
 11 13  1  0
  3 11  1  0
 15 16  1  0
 16 17  2  0
 17 18  1  0
 18 19  2  0
 19 20  1  0
 15 20  2  0
 22 23  1  0
 23 24  1  0
 21 22  1  0
 25 26  1  0
 26 27  1  0
 27 28  1  0
 28 29  1  0
 29 30  1  0
 25 30  1  0
 24 28  1  0
 18 21  1  0
 14 15  1  0
  4 14  1  0
 13 31  1  0
 25 32  1  0
 32 33  1  0
M  END
> <From> 
www.bindingDB.org

> <BindingDB Reactant_set_id>
50426770

> <Ligand InChI>
InChI=1S/C25H32N6O2/c1-2-30-13-15-31(16-14-30)12-5-17-33-20-10-8-19(9-11-20)28-24-21-6-3-4-7-23(21)27-18-22(24)25(32)29-26/h3-4,6-11,18H,2,5,12-17,26H2,1H3,(H,27,28)(H,29,32)

> <Ligand InChI Key>
FLXYCNFMDMEKBP-UHFFFAOYSA-N

> <BindingDB MonomerID>
50126681

> <BindingDB Ligand Name>
CHEMBL3628447

> <Target Name Assigned by Curator or DataSource>
DNA gyrase subunit B

> <Target Source Organism According to Curator or DataSource>


> <Ki (nM)>


> <IC50 (nM)>
 28440

> <Kd (nM)>


> <EC50 (nM)>


> <kon (M-1-s-1)>


> <koff (s-1)>


> <pH>


> <Temp C>


> <Curation/DataSource>
ChEMBL

> <Article DOI>
10.1016/j.ejmech.2015.06.032

> <PMID>
26318054

> <PubChem AID>


> <Patent Number>


> <Authors>
Medapi, B; Suryadevara, P; Renuka, J; Sridevi, JP; Yogeeswari, P; Sriram, D

> <Institution>
Birla Institute of Technology&amp;Science

> <Link to Ligand in BindingDB>
http://www.bindingdb.org/bind/chemsearch/marvin/MolStructure.jsp?monomerid=50126681

> <Link to Ligand-Target Pair in BindingDB>
http://www.bindingdb.org/jsp/dbsearch/PrimarySearch_ki.jsp?energyterm=kJ/mole&tag=pol&polymerid=50006452&target=DNA+gyrase+subunit+B&column=ki&startPg=0&Increment=50&submit=Search

> <Link to Ligand-Target Pair in BindingDB>
http://www.bindingdb.org/jsp/dbsearch/PrimarySearch_ki.jsp?energyterm=kJ/mole&tag=r21&monomerid=50126681&enzyme=DNA+gyrase+subunit+B&column=ki&startPg=0&Increment=50&submit=Search

> <Ligand HET ID in PDB>


> <PDB ID(s) for Ligand-Target Complex>


> <PubChem CID>
122193461

> <PubChem SID>
321902393

> <ChEBI ID of Ligand>


> <ChEMBL ID of Ligand>


> <DrugBank ID of Ligand>


> <IUPHAR_GRAC ID of Ligand>


> <KEGG ID of Ligand>


> <ZINC ID of Ligand>


> <Number of Protein Chains in Target (>1 implies a multichain complex)>
1

> <BindingDB Target Chain Sequence>
MAAQKNNAPKEYGADSITILEGLEAVRKRPGMYIGSTGERGLHHLIWEVVDNAVDEAMAGFATRVDVKIHADGSVEVRDDGRGIPVEMHATGMPTIDVVMTQLHAGGKFDGETYAVSGGLHGVGVSVVNALSTRLEATVLRDGYEWFQYYDRSVPGKLKQGGETKETGTTIRFWADPEIFETTDYNFETVARRLQEMAFLNKGLTIELTDERVTAEEVVDDVVKDTAEAPKTADEKAAEATGPSKVKHRVFHYPGGLVDYVKHINRTKTPIQQSIIDFDGKGPGHEVEIAMQWNAGYSESVHTFANTINTHEGGTHEEGFRAALTSVVNRYAKDKKLLKDKDPNLTGDDIREGLAAVISVKVAEPQFEGQTKTKLGNTEVKSFVQKICNEQLQHWFEANPAEAKTVVNKAVSSAQARIAARKARELVRRKSATDIGGLPGKLADCRSTDPSKSELYVVEGDSAGGSAKSGRDSMFQAILPLRGKIINVEKARIDRVLKNTEVQSIITALGTGIHDEFDISKLRYHKIVLMADADVDGQHISTLLLTLLFRFMKPLVENGHIFLAQPPLYKLKWQRSEPEFAYSDRERDGLLEAGRAAGKKINVDDGIQRYKGLGEMDAKELWETTMDPSVRVLRQVTLDDAAAADELFSILMGEDVEARRSFITRNAKDVRFLDV

> <PDB ID(s) of Target Chain>
4BAE

> <UniProt (SwissProt) Recommended Name of Target Chain>
DNA gyrase subunit B

> <UniProt (SwissProt) Entry Name of Target Chain>
GYRB_MYCSM

> <UniProt (SwissProt) Primary ID of Target Chain>
P0C559

> <UniProt (SwissProt) Secondary ID(s) of Target Chain>
P48355,Q59555

> <UniProt (SwissProt) Alternative ID(s) of Target Chain>


> <UniProt (TrEMBL) Submitted Name of Target Chain>


> <UniProt (TrEMBL) Entry Name of Target Chain>


> <UniProt (TrEMBL) Primary ID of Target Chain>


> <UniProt (TrEMBL) Secondary ID(s) of Target Chain>


> <UniProt (TrEMBL) Alternative ID(s) of Target Chain>


$$$$

  Mrv0541 04171609262D          

 27 30  0  0  0  0            999 V2000
   -0.4634    6.2457    0.0000 C   0  0  0  0  0  0  0  0  0  0  0  0
    0.3621    6.2165    0.0000 C   0  0  0  0  0  0  0  0  0  0  0  0
    0.7496    5.4870    0.0000 C   0  0  0  0  0  0  0  0  0  0  0  0
    0.3116    4.7867    0.0000 C   0  0  0  0  0  0  0  0  0  0  0  0
   -0.5112    4.8163    0.0000 C   0  0  0  0  0  0  0  0  0  0  0  0
   -0.9014    5.5454    0.0000 C   0  0  0  0  0  0  0  0  0  0  0  0
   -1.0009    4.1505    0.0000 C   0  0  0  0  0  0  0  0  0  0  0  0
   -0.7504    3.3634    0.0000 S   0  0  0  0  0  0  0  0  0  0  0  0
   -1.4214    2.8939    0.0000 C   0  0  0  0  0  0  0  0  0  0  0  0
   -2.0869    3.3714    0.0000 C   0  0  0  0  0  0  0  0  0  0  0  0
   -1.8269    4.1554    0.0000 C   0  0  0  0  0  0  0  0  0  0  0  0
   -2.8716    3.1167    0.0000 C   0  0  0  0  0  0  0  0  0  0  0  0
   -3.3628    3.5587    0.0000 O   0  0  0  0  0  0  0  0  0  0  0  0
   -3.0090    2.4704    0.0000 N   0  0  0  0  0  0  0  0  0  0  0  0
   -1.4246    2.0675    0.0000 N   0  0  0  0  0  0  0  0  0  0  0  0
   -0.7108    1.6510    0.0000 C   0  0  0  0  0  0  0  0  0  0  0  0
   -0.7139    0.8245    0.0000 C   0  0  0  0  0  0  0  0  0  0  0  0
   -0.1371    1.9790    0.0000 O   0  0  0  0  0  0  0  0  0  0  0  0
   -1.4379    0.4122    0.0000 C   0  0  0  0  0  0  0  0  0  0  0  0
   -1.4379   -0.4122    0.0000 C   0  0  0  0  0  0  0  0  0  0  0  0
   -0.7139   -0.8245    0.0000 C   0  0  0  0  0  0  0  0  0  0  0  0
    0.0000    0.4122    0.0000 C   0  0  0  0  0  0  0  0  0  0  0  0
    0.0000   -0.4122    0.0000 C   0  0  0  0  0  0  0  0  0  0  0  0
    0.7139   -0.8245    0.0000 C   0  0  0  0  0  0  0  0  0  0  0  0
    1.4279   -0.4122    0.0000 C   0  0  0  0  0  0  0  0  0  0  0  0
    1.4279    0.4122    0.0000 C   0  0  0  0  0  0  0  0  0  0  0  0
    0.7139    0.8245    0.0000 C   0  0  0  0  0  0  0  0  0  0  0  0
  1  2  4  0  0  0  0
  2  3  4  0  0  0  0
  3  4  4  0  0  0  0
  4  5  4  0  0  0  0
  5  6  4  0  0  0  0
  6  1  4  0  0  0  0
  7  8  4  0  0  0  0
  8  9  4  0  0  0  0
  9 10  4  0  0  0  0
 10 11  4  0  0  0  0
 11  7  4  0  0  0  0
  5  7  1  0  0  0  0
 10 12  1  0  0  0  0
 12 13  2  0  0  0  0
 12 14  1  0  0  0  0
  9 15  1  0  0  0  0
 15 16  1  0  0  0  0
 16 17  1  0  0  0  0
 16 18  2  0  0  0  0
 17 19  4  0  0  0  0
 19 20  4  0  0  0  0
 20 21  4  0  0  0  0
 21 23  4  0  0  0  0
 22 17  4  0  0  0  0
 22 23  4  0  0  0  0
 23 24  4  0  0  0  0
 24 25  4  0  0  0  0
 25 26  4  0  0  0  0
 26 27  4  0  0  0  0
 27 22  4  0  0  0  0
M  END
> <From> 
www.bindingDB.org

> <BindingDB Reactant_set_id>
50302339

> <Ligand InChI>
InChI=1S/C22H16N2O2S/c23-20(25)18-13-19(15-8-2-1-3-9-15)27-22(18)24-21(26)17-12-6-10-14-7-4-5-11-16(14)17/h1-13H,(H2,23,25)(H,24,26)

> <Ligand InChI Key>
OFIONYWWEGLEBS-UHFFFAOYSA-N

> <BindingDB MonomerID>
50066102

> <BindingDB Ligand Name>
CHEMBL3402947

> <Target Name Assigned by Curator or DataSource>
DNA gyrase subunit B

> <Target Source Organism According to Curator or DataSource>


> <Ki (nM)>


> <IC50 (nM)>
 28550

> <Kd (nM)>


> <EC50 (nM)>


> <kon (M-1-s-1)>


> <koff (s-1)>


> <pH>


> <Temp C>
25.00

> <Curation/DataSource>
ChEMBL

> <Article DOI>
10.1016/j.bmc.2015.02.032

> <PMID>
25766629

> <PubChem AID>


> <Patent Number>


> <Authors>
Saxena, S; Samala, G; Renuka, J; Sridevi, JP; Yogeeswari, P; Sriram, D

> <Institution>
Birla Institute of Technology&amp; Science-Pilani

> <Link to Ligand in BindingDB>
http://www.bindingdb.org/bind/chemsearch/marvin/MolStructure.jsp?monomerid=50066102

> <Link to Ligand-Target Pair in BindingDB>
http://www.bindingdb.org/jsp/dbsearch/PrimarySearch_ki.jsp?energyterm=kJ/mole&tag=pol&polymerid=50006452&target=DNA+gyrase+subunit+B&column=ki&startPg=0&Increment=50&submit=Search

> <Link to Ligand-Target Pair in BindingDB>
http://www.bindingdb.org/jsp/dbsearch/PrimarySearch_ki.jsp?energyterm=kJ/mole&tag=r21&monomerid=50066102&enzyme=DNA+gyrase+subunit+B&column=ki&startPg=0&Increment=50&submit=Search

> <Ligand HET ID in PDB>


> <PDB ID(s) for Ligand-Target Complex>


> <PubChem CID>
23936151

> <PubChem SID>
313071622

> <ChEBI ID of Ligand>


> <ChEMBL ID of Ligand>


> <DrugBank ID of Ligand>


> <IUPHAR_GRAC ID of Ligand>


> <KEGG ID of Ligand>


> <ZINC ID of Ligand>


> <Number of Protein Chains in Target (>1 implies a multichain complex)>
1

> <BindingDB Target Chain Sequence>
MAAQKNNAPKEYGADSITILEGLEAVRKRPGMYIGSTGERGLHHLIWEVVDNAVDEAMAGFATRVDVKIHADGSVEVRDDGRGIPVEMHATGMPTIDVVMTQLHAGGKFDGETYAVSGGLHGVGVSVVNALSTRLEATVLRDGYEWFQYYDRSVPGKLKQGGETKETGTTIRFWADPEIFETTDYNFETVARRLQEMAFLNKGLTIELTDERVTAEEVVDDVVKDTAEAPKTADEKAAEATGPSKVKHRVFHYPGGLVDYVKHINRTKTPIQQSIIDFDGKGPGHEVEIAMQWNAGYSESVHTFANTINTHEGGTHEEGFRAALTSVVNRYAKDKKLLKDKDPNLTGDDIREGLAAVISVKVAEPQFEGQTKTKLGNTEVKSFVQKICNEQLQHWFEANPAEAKTVVNKAVSSAQARIAARKARELVRRKSATDIGGLPGKLADCRSTDPSKSELYVVEGDSAGGSAKSGRDSMFQAILPLRGKIINVEKARIDRVLKNTEVQSIITALGTGIHDEFDISKLRYHKIVLMADADVDGQHISTLLLTLLFRFMKPLVENGHIFLAQPPLYKLKWQRSEPEFAYSDRERDGLLEAGRAAGKKINVDDGIQRYKGLGEMDAKELWETTMDPSVRVLRQVTLDDAAAADELFSILMGEDVEARRSFITRNAKDVRFLDV

> <PDB ID(s) of Target Chain>
4BAE

> <UniProt (SwissProt) Recommended Name of Target Chain>
DNA gyrase subunit B

> <UniProt (SwissProt) Entry Name of Target Chain>
GYRB_MYCSM

> <UniProt (SwissProt) Primary ID of Target Chain>
P0C559

> <UniProt (SwissProt) Secondary ID(s) of Target Chain>
P48355,Q59555

> <UniProt (SwissProt) Alternative ID(s) of Target Chain>


> <UniProt (TrEMBL) Submitted Name of Target Chain>


> <UniProt (TrEMBL) Entry Name of Target Chain>


> <UniProt (TrEMBL) Primary ID of Target Chain>


> <UniProt (TrEMBL) Secondary ID(s) of Target Chain>


> <UniProt (TrEMBL) Alternative ID(s) of Target Chain>


$$$$

  SciTegic12211722142D

 27 29  0  0  0  0            999 V2000
    7.8370   -5.7276    0.0000 O   0  0
    7.4285   -6.4367    0.0000 C   0  0
    6.6113   -6.4367    0.0000 C   0  0
    6.1311   -7.0958    0.0000 C   0  0
    5.3539   -6.8453    0.0000 C   0  0
    4.6906   -7.3254    0.0000 Br  0  0
    5.3539   -6.0281    0.0000 C   0  0
    4.6906   -5.5479    0.0000 Br  0  0
    6.1311   -5.7775    0.0000 N   0  0
    7.8370   -7.1458    0.0000 N   0  0
    8.6542   -7.1458    0.0000 C   0  0
    9.1344   -6.4825    0.0000 N   0  0
    9.9116   -6.7372    0.0000 C   0  0
   10.6166   -6.3286    0.0000 C   0  0
   11.3257   -6.7372    0.0000 C   0  0
   11.3257   -7.5544    0.0000 C   0  0
   12.0348   -7.9630    0.0000 N   0  0
   12.7438   -7.5544    0.0000 C   0  0
   12.7438   -6.7372    0.0000 C   0  0
   12.0348   -6.3286    0.0000 O   0  0
   12.0348   -5.5114    0.0000 C   0  0
   11.3257   -5.1028    0.0000 C   0  0
   13.4488   -6.3286    0.0000 O   0  0
   13.4488   -7.9630    0.0000 O   0  0
   10.6166   -7.9630    0.0000 C   0  0
    9.9116   -7.5544    0.0000 C   0  0
    9.1344   -7.8049    0.0000 S   0  0
  1  2  2  0
  2  3  1  0
  3  4  2  0
  4  5  1  0
  5  6  1  0
  5  7  2  0
  7  8  1  0
  7  9  1  0
  3  9  1  0
  2 10  1  0
 10 11  1  0
 11 12  2  0
 12 13  1  0
 13 14  2  0
 14 15  1  0
 15 16  2  0
 16 17  1  0
 17 18  1  0
 18 19  1  0
 19 20  1  0
 20 21  1  0
 21 22  1  0
 19 23  2  0
 18 24  2  0
 16 25  1  0
 25 26  2  0
 13 26  1  0
 26 27  1  0
 11 27  1  0
M  END
> <From> 
www.bindingDB.org

> <BindingDB Reactant_set_id>
50524120

> <Ligand InChI>
InChI=1S/C16H12Br2N4O4S/c1-2-26-15(25)14(24)19-7-3-4-9-11(5-7)27-16(21-9)22-13(23)10-6-8(17)12(18)20-10/h3-6,20H,2H2,1H3,(H,19,24)(H,21,22,23)

> <Ligand InChI Key>
QGKSDBJSDISIPL-UHFFFAOYSA-N

> <BindingDB MonomerID>
50198300

> <BindingDB Ligand Name>
CHEMBL3935324

> <Target Name Assigned by Curator or DataSource>
DNA Gyrase Subunit B

> <Target Source Organism According to Curator or DataSource>
Escherichia coli

> <Ki (nM)>


> <IC50 (nM)>
 29000

> <Kd (nM)>


> <EC50 (nM)>


> <kon (M-1-s-1)>


> <koff (s-1)>


> <pH>


> <Temp C>


> <Curation/DataSource>
ChEMBL

> <Article DOI>
10.1021/acs.jmedchem.6b00864

> <PMID>
27541007

> <PubChem AID>


> <Patent Number>


> <Authors>
Gjorgjieva, M; Tomaic, T; Barancokova, M; Katsamakas, S; Ila, J; Tammela, P; Peterlin Maic, L; Kikelj, D

> <Institution>
University of Ljubljana

> <Link to Ligand in BindingDB>
http://www.bindingdb.org/bind/chemsearch/marvin/MolStructure.jsp?monomerid=50198300

> <Link to Ligand-Target Pair in BindingDB>
http://www.bindingdb.org/jsp/dbsearch/PrimarySearch_ki.jsp?energyterm=kJ/mole&tag=pol&polymerid=2630&target=DNA+Gyrase+Subunit+B&column=ki&startPg=0&Increment=50&submit=Search

> <Link to Ligand-Target Pair in BindingDB>
http://www.bindingdb.org/jsp/dbsearch/PrimarySearch_ki.jsp?energyterm=kJ/mole&tag=r21&monomerid=50198300&enzyme=DNA+Gyrase+Subunit+B&column=ki&startPg=0&Increment=50&submit=Search

> <Ligand HET ID in PDB>


> <PDB ID(s) for Ligand-Target Complex>


> <PubChem CID>
134149146

> <PubChem SID>
375978198

> <ChEBI ID of Ligand>


> <ChEMBL ID of Ligand>


> <DrugBank ID of Ligand>


> <IUPHAR_GRAC ID of Ligand>


> <KEGG ID of Ligand>


> <ZINC ID of Ligand>


> <Number of Protein Chains in Target (>1 implies a multichain complex)>
1

> <BindingDB Target Chain Sequence>
MSNSYDSSSIKVLKGLDAVRKRPGMYIGDTDDGTGLHHMVFEVVDNAIDEALAGHCKEII
VTIHADNSVSVQDDGRGIPTGIHPEEGVSAAEVIMTVLHAGGKFDDNSYKVSGGLHGVGV
SVVNALSQKLELVIQREGKIHRQIYEHGVPQAPLAVTGETEKTGTMVRFWPSLETFTNVT
EFEYEILAKRLRELSFLNSGVSIRLRDKRDGKEDHFHYEGGIKAFVEYLNKNKTPIHPNI
FYFSTEKDGIGVEVALQWNDGFQENIYCFTNNIPQRDGGTHLAGFRAAMTRTLNAYMDKE
GYSKKAKVSATGDDAREGLIAVVSVKVPDPKFSSQTKDKLVSSEVKSAVEQQMNELLAEY
LLENPTDAKIVVGKIIDAARAREAARRAREMTRRKGALDLAGLPGKLADCQERDPALSEL
YLVEGDSAGGSAKQGRNRKNQAILPLKGKILNVEKARFDKMLSSQEVATLITALGCGIGR
DEYNPDKLRYHSIIIMTDADVDGSHIRTLLLTFFYRQMPEIVERGHVYIAQPPLYKVKKG
KQEQYIKDDEAMDQYQISIALDGATLHTNASAPALAGEALEKLVSEYNATQKMINRMERR
YPKAMLKELIYQPTLTEADLSDEQTVTRWVNALVSELNDKEQHGSQWKFDVHTNAEQNLF
EPIVRVRTHGVDTDYPLDHEFITGGEYRRICTLGEKLRGLLEEDAFIERGERRQPVASFE
QALDWLVKESRRGLSIQRYKGLGEMNPEQLWETTMDPESRRMLRVTVKDAIAADQLFTTL
MGDAVEPRRAFIEENALKAANIDI

> <PDB ID(s) of Target Chain>
1KZN,3G7E,3NUH,4DUH,4HYP,4KFG,4PRV,4PRX,4PU9,4WUB,4WUC,4WUD,4XTJ,4ZVI,5L3J,5MMN,5MMO,5MMP,5Z4H,5Z4O,5Z9B,5Z9E,5Z9F,5Z9L,5Z9M,5Z9N,5Z9Q,6ENG,6F86,6F8J,6F94,6F96

> <UniProt (SwissProt) Recommended Name of Target Chain>
DNA gyrase subunit B

> <UniProt (SwissProt) Entry Name of Target Chain>
GYRB_ECOLI

> <UniProt (SwissProt) Primary ID of Target Chain>
P0AES6

> <UniProt (SwissProt) Secondary ID(s) of Target Chain>
O08438,P06982,Q2M811

> <UniProt (SwissProt) Alternative ID(s) of Target Chain>


> <UniProt (TrEMBL) Submitted Name of Target Chain>


> <UniProt (TrEMBL) Entry Name of Target Chain>


> <UniProt (TrEMBL) Primary ID of Target Chain>


> <UniProt (TrEMBL) Secondary ID(s) of Target Chain>


> <UniProt (TrEMBL) Alternative ID(s) of Target Chain>


$$$$

  Mrv0541 11241418562D          

 34 37  0  0  0  0            999 V2000
   12.6244  -25.5238    0.0000 N   0  0  0  0  0  0  0  0  0  0  0  0
   13.4494  -25.5238    0.0000 C   0  0  0  0  0  0  0  0  0  0  0  0
   13.7061  -24.7398    0.0000 C   0  0  0  0  0  0  0  0  0  0  0  0
   13.0369  -24.2531    0.0000 S   0  0  0  0  0  0  0  0  0  0  0  0
   12.3718  -24.7398    0.0000 C   0  0  0  0  0  0  0  0  0  0  0  0
   14.4291  -24.3409    0.0000 C   0  0  0  0  0  0  0  0  0  0  0  0
   14.4454  -23.5160    0.0000 O   0  0  0  0  0  0  0  0  0  0  0  0
   15.1354  -24.7673    0.0000 O   0  0  0  0  0  0  0  0  0  0  0  0
   15.8578  -24.3690    0.0000 C   0  0  0  0  0  0  0  0  0  0  0  0
   16.5639  -24.7955    0.0000 C   0  0  0  0  0  0  0  0  0  0  0  0
   11.6499  -24.3395    0.0000 C   0  0  0  0  0  0  0  0  0  0  0  0
   11.6391  -23.5165    0.0000 N   0  0  0  0  0  0  0  0  0  0  0  0
   10.9188  -23.1161    0.0000 C   0  0  0  0  0  0  0  0  0  0  0  0
   10.2104  -23.5406    0.0000 C   0  0  0  0  0  0  0  0  0  0  0  0
   10.2268  -24.3696    0.0000 C   0  0  0  0  0  0  0  0  0  0  0  0
   10.9477  -24.7663    0.0000 C   0  0  0  0  0  0  0  0  0  0  0  0
   13.9334  -26.1919    0.0000 N   0  0  0  0  0  0  0  0  0  0  0  0
   13.5215  -26.9114    0.0000 C   0  0  0  0  0  0  0  0  0  0  0  0
   13.9356  -27.6207    0.0000 C   0  0  0  0  0  0  0  0  0  0  0  0
   14.7609  -27.6191    0.0000 C   0  0  0  0  0  0  0  0  0  0  0  0
   15.1704  -26.9019    0.0000 C   0  0  0  0  0  0  0  0  0  0  0  0
   14.7547  -26.1863    0.0000 C   0  0  0  0  0  0  0  0  0  0  0  0
   15.1758  -28.3322    0.0000 N   0  0  0  0  0  0  0  0  0  0  0  0
   16.0007  -28.3294    0.0000 C   0  0  0  0  0  0  0  0  0  0  0  0
   16.4156  -29.0425    0.0000 C   0  0  0  0  0  0  0  0  0  0  0  0
   16.0039  -29.7562    0.0000 C   0  0  0  0  0  0  0  0  0  0  0  0
   16.4181  -30.4687    0.0000 C   0  0  0  0  0  0  0  0  0  0  0  0
   17.2439  -30.4664    0.0000 C   0  0  0  0  0  0  0  0  0  0  0  0
   17.6538  -29.7456    0.0000 C   0  0  0  0  0  0  0  0  0  0  0  0
   17.2373  -29.0359    0.0000 C   0  0  0  0  0  0  0  0  0  0  0  0
   18.4788  -29.7399    0.0000 C   0  0  0  0  0  0  0  0  0  0  0  0
   18.8961  -30.4515    0.0000 F   0  0  0  0  0  0  0  0  0  0  0  0
   18.8863  -29.0226    0.0000 F   0  0  0  0  0  0  0  0  0  0  0  0
   19.3033  -29.7361    0.0000 F   0  0  0  0  0  0  0  0  0  0  0  0
  1  2  1  0  0  0  0
  2  3  2  0  0  0  0
  3  4  1  0  0  0  0
  4  5  1  0  0  0  0
  5  1  2  0  0  0  0
  3  6  1  0  0  0  0
  6  7  2  0  0  0  0
  6  8  1  0  0  0  0
  8  9  1  0  0  0  0
  9 10  1  0  0  0  0
  5 11  1  0  0  0  0
 11 12  2  0  0  0  0
 12 13  1  0  0  0  0
 13 14  2  0  0  0  0
 14 15  1  0  0  0  0
 15 16  2  0  0  0  0
 16 11  1  0  0  0  0
  2 17  1  0  0  0  0
 17 18  1  0  0  0  0
 17 22  1  0  0  0  0
 18 19  1  0  0  0  0
 19 20  1  0  0  0  0
 20 21  1  0  0  0  0
 21 22  1  0  0  0  0
 20 23  1  0  0  0  0
 23 24  1  0  0  0  0
 24 25  1  0  0  0  0
 25 26  2  0  0  0  0
 26 27  1  0  0  0  0
 27 28  2  0  0  0  0
 28 29  1  0  0  0  0
 29 30  2  0  0  0  0
 30 25  1  0  0  0  0
 29 31  1  0  0  0  0
 31 32  1  0  0  0  0
 31 33  1  0  0  0  0
 31 34  1  0  0  0  0
M  END
> <From> 
www.bindingDB.org

> <BindingDB Reactant_set_id>
51083545

> <Ligand InChI>
InChI=1S/C24H25F3N4O2S/c1-2-33-23(32)20-21(30-22(34-20)19-8-3-4-11-28-19)31-12-9-18(10-13-31)29-15-16-6-5-7-17(14-16)24(25,26)27/h3-8,11,14,18,29H,2,9-10,12-13,15H2,1H3

> <Ligand InChI Key>
PZSJACZPGLTYND-UHFFFAOYSA-N

> <BindingDB MonomerID>
50443323

> <BindingDB Ligand Name>
CHEMBL3088281

> <Target Name Assigned by Curator or DataSource>
DNA gyrase subunit B

> <Target Source Organism According to Curator or DataSource>


> <Ki (nM)>


> <IC50 (nM)>
 29100

> <Kd (nM)>


> <EC50 (nM)>


> <kon (M-1-s-1)>


> <koff (s-1)>


> <pH>


> <Temp C>


> <Curation/DataSource>
ChEMBL

> <Article DOI>
10.1016/j.ejmech.2013.09.025

> <PMID>
24148991

> <PubChem AID>


> <Patent Number>


> <Authors>
Jeankumar, VU; Renuka, J; Santosh, P; Soni, V; Sridevi, JP; Suryadevara, P; Yogeeswari, P; Sriram, D

> <Institution>
Birla Institute of Technology&amp; Science-Pilani

> <Link to Ligand in BindingDB>
http://www.bindingdb.org/bind/chemsearch/marvin/MolStructure.jsp?monomerid=50443323

> <Link to Ligand-Target Pair in BindingDB>
http://www.bindingdb.org/jsp/dbsearch/PrimarySearch_ki.jsp?energyterm=kJ/mole&tag=pol&polymerid=50006452&target=DNA+gyrase+subunit+B&column=ki&startPg=0&Increment=50&submit=Search

> <Link to Ligand-Target Pair in BindingDB>
http://www.bindingdb.org/jsp/dbsearch/PrimarySearch_ki.jsp?energyterm=kJ/mole&tag=r21&monomerid=50443323&enzyme=DNA+gyrase+subunit+B&column=ki&startPg=0&Increment=50&submit=Search

> <Ligand HET ID in PDB>


> <PDB ID(s) for Ligand-Target Complex>


> <PubChem CID>
76317138

> <PubChem SID>
194941219

> <ChEBI ID of Ligand>


> <ChEMBL ID of Ligand>
CHEMBL3088281

> <DrugBank ID of Ligand>


> <IUPHAR_GRAC ID of Ligand>


> <KEGG ID of Ligand>


> <ZINC ID of Ligand>


> <Number of Protein Chains in Target (>1 implies a multichain complex)>
1

> <BindingDB Target Chain Sequence>
MAAQKNNAPKEYGADSITILEGLEAVRKRPGMYIGSTGERGLHHLIWEVVDNAVDEAMAGFATRVDVKIHADGSVEVRDDGRGIPVEMHATGMPTIDVVMTQLHAGGKFDGETYAVSGGLHGVGVSVVNALSTRLEATVLRDGYEWFQYYDRSVPGKLKQGGETKETGTTIRFWADPEIFETTDYNFETVARRLQEMAFLNKGLTIELTDERVTAEEVVDDVVKDTAEAPKTADEKAAEATGPSKVKHRVFHYPGGLVDYVKHINRTKTPIQQSIIDFDGKGPGHEVEIAMQWNAGYSESVHTFANTINTHEGGTHEEGFRAALTSVVNRYAKDKKLLKDKDPNLTGDDIREGLAAVISVKVAEPQFEGQTKTKLGNTEVKSFVQKICNEQLQHWFEANPAEAKTVVNKAVSSAQARIAARKARELVRRKSATDIGGLPGKLADCRSTDPSKSELYVVEGDSAGGSAKSGRDSMFQAILPLRGKIINVEKARIDRVLKNTEVQSIITALGTGIHDEFDISKLRYHKIVLMADADVDGQHISTLLLTLLFRFMKPLVENGHIFLAQPPLYKLKWQRSEPEFAYSDRERDGLLEAGRAAGKKINVDDGIQRYKGLGEMDAKELWETTMDPSVRVLRQVTLDDAAAADELFSILMGEDVEARRSFITRNAKDVRFLDV

> <PDB ID(s) of Target Chain>
4BAE

> <UniProt (SwissProt) Recommended Name of Target Chain>
DNA gyrase subunit B

> <UniProt (SwissProt) Entry Name of Target Chain>
GYRB_MYCSM

> <UniProt (SwissProt) Primary ID of Target Chain>
P0C559

> <UniProt (SwissProt) Secondary ID(s) of Target Chain>
P48355,Q59555

> <UniProt (SwissProt) Alternative ID(s) of Target Chain>


> <UniProt (TrEMBL) Submitted Name of Target Chain>


> <UniProt (TrEMBL) Entry Name of Target Chain>


> <UniProt (TrEMBL) Primary ID of Target Chain>


> <UniProt (TrEMBL) Secondary ID(s) of Target Chain>


> <UniProt (TrEMBL) Alternative ID(s) of Target Chain>


$$$$

  Mrv0541 11171616332D          

 33 36  0  0  0  0            999 V2000
   12.8129   -7.3492    0.0000 O   0  0  0  0  0  0  0  0  0  0  0  0
   13.2978   -6.6818    0.0000 C   0  0  0  0  0  0  0  0  0  0  0  0
   12.8129   -6.0144    0.0000 C   0  0  0  0  0  0  0  0  0  0  0  0
   12.0283   -6.2693    0.0000 C   0  0  0  0  0  0  0  0  0  0  0  0
   12.0283   -7.0943    0.0000 C   0  0  0  0  0  0  0  0  0  0  0  0
   11.3138   -5.8568    0.0000 C   0  0  0  0  0  0  0  0  0  0  0  0
   10.5993   -6.2693    0.0000 C   0  0  0  0  0  0  0  0  0  0  0  0
   10.5993   -7.0943    0.0000 C   0  0  0  0  0  0  0  0  0  0  0  0
   11.3138   -7.5068    0.0000 C   0  0  0  0  0  0  0  0  0  0  0  0
   14.1229   -6.6818    0.0000 C   0  0  0  0  0  0  0  0  0  0  0  0
   14.5354   -7.3963    0.0000 O   0  0  0  0  0  0  0  0  0  0  0  0
   14.5354   -5.9673    0.0000 O   0  0  0  0  0  0  0  0  0  0  0  0
    9.8848   -5.8568    0.0000 N   0  0  0  0  0  0  0  0  0  0  0  0
    9.1704   -6.2693    0.0000 C   0  0  0  0  0  0  0  0  0  0  0  0
    8.4559   -5.8568    0.0000 C   0  0  0  0  0  0  0  0  0  0  0  0
    8.4559   -5.0318    0.0000 N   0  0  0  0  0  0  0  0  0  0  0  0
    9.1704   -4.6193    0.0000 C   0  0  0  0  0  0  0  0  0  0  0  0
    9.8848   -5.0318    0.0000 C   0  0  0  0  0  0  0  0  0  0  0  0
    7.7414   -4.6193    0.0000 C   0  0  0  0  0  0  0  0  0  0  0  0
    7.0270   -5.0318    0.0000 C   0  0  0  0  0  0  0  0  0  0  0  0
    7.0270   -5.8568    0.0000 C   0  0  0  0  0  0  0  0  0  0  0  0
    6.3125   -6.2693    0.0000 C   0  0  0  0  0  0  0  0  0  0  0  0
    5.5980   -5.8568    0.0000 C   0  0  0  0  0  0  0  0  0  0  0  0
    5.5980   -5.0318    0.0000 C   0  0  0  0  0  0  0  0  0  0  0  0
    6.3125   -4.6193    0.0000 C   0  0  0  0  0  0  0  0  0  0  0  0
    7.7414   -3.7943    0.0000 O   0  0  0  0  0  0  0  0  0  0  0  0
    7.7414   -6.2693    0.0000 O   0  0  0  0  0  0  0  0  0  0  0  0
   15.3604   -5.9673    0.0000 C   0  0  0  0  0  0  0  0  0  0  0  0
   15.7729   -5.2529    0.0000 C   0  0  0  0  0  0  0  0  0  0  0  0
    7.7414   -7.0943    0.0000 C   0  0  0  0  0  0  0  0  0  0  0  0
    8.4559   -7.5068    0.0000 F   0  0  0  0  0  0  0  0  0  0  0  0
    7.0270   -7.5068    0.0000 F   0  0  0  0  0  0  0  0  0  0  0  0
    7.7333   -7.9167    0.0000 F   0  0  0  0  0  0  0  0  0  0  0  0
  1  2  4  0  0  0  0
  2  3  4  0  0  0  0
  3  4  4  0  0  0  0
  4  5  4  0  0  0  0
  1  5  4  0  0  0  0
  6  7  4  0  0  0  0
  7  8  4  0  0  0  0
  8  9  4  0  0  0  0
  5  9  4  0  0  0  0
  4  6  4  0  0  0  0
 10 11  2  0  0  0  0
 10 12  1  0  0  0  0
  2 10  1  0  0  0  0
 13 14  1  0  0  0  0
 14 15  1  0  0  0  0
 15 16  1  0  0  0  0
 16 17  1  0  0  0  0
 17 18  1  0  0  0  0
 13 18  1  0  0  0  0
 19 20  1  0  0  0  0
 20 21  4  0  0  0  0
 21 22  4  0  0  0  0
 22 23  4  0  0  0  0
 23 24  4  0  0  0  0
 24 25  4  0  0  0  0
 20 25  4  0  0  0  0
 19 26  2  0  0  0  0
 21 27  1  0  0  0  0
 16 19  1  0  0  0  0
  7 13  1  0  0  0  0
 28 29  1  0  0  0  0
 12 28  1  0  0  0  0
 27 30  1  0  0  0  0
 30 31  1  0  0  0  0
 30 32  1  0  0  0  0
 30 33  1  0  0  0  0
M  END
> <From> 
www.bindingDB.org

> <BindingDB Reactant_set_id>
50369852

> <Ligand InChI>
InChI=1S/C23H21F3N2O5/c1-2-31-22(30)20-14-15-13-16(7-8-18(15)32-20)27-9-11-28(12-10-27)21(29)17-5-3-4-6-19(17)33-23(24,25)26/h3-8,13-14H,2,9-12H2,1H3

> <Ligand InChI Key>
HGKNMNYUNJXUAK-UHFFFAOYSA-N

> <BindingDB MonomerID>
50100637

> <BindingDB Ligand Name>
CHEMBL3323250

> <Target Name Assigned by Curator or DataSource>
DNA gyrase subunit B

> <Target Source Organism According to Curator or DataSource>


> <Ki (nM)>


> <IC50 (nM)>
 29150

> <Kd (nM)>


> <EC50 (nM)>


> <kon (M-1-s-1)>


> <koff (s-1)>


> <pH>


> <Temp C>


> <Curation/DataSource>
ChEMBL

> <Article DOI>
10.1016/j.bmc.2014.06.041

> <PMID>
25129171

> <PubChem AID>


> <Patent Number>


> <Authors>
Renuka, J; Reddy, KI; Srihari, K; Jeankumar, VU; Shravan, M; Sridevi, JP; Yogeeswari, P; Babu, KS; Sriram, D

> <Institution>
Institute of Technology&amp; Science-Pilani

> <Link to Ligand in BindingDB>
http://www.bindingdb.org/bind/chemsearch/marvin/MolStructure.jsp?monomerid=50100637

> <Link to Ligand-Target Pair in BindingDB>
http://www.bindingdb.org/jsp/dbsearch/PrimarySearch_ki.jsp?energyterm=kJ/mole&tag=pol&polymerid=50006452&target=DNA+gyrase+subunit+B&column=ki&startPg=0&Increment=50&submit=Search

> <Link to Ligand-Target Pair in BindingDB>
http://www.bindingdb.org/jsp/dbsearch/PrimarySearch_ki.jsp?energyterm=kJ/mole&tag=r21&monomerid=50100637&enzyme=DNA+gyrase+subunit+B&column=ki&startPg=0&Increment=50&submit=Search

> <Ligand HET ID in PDB>


> <PDB ID(s) for Ligand-Target Complex>


> <PubChem CID>
118710631

> <PubChem SID>
318490746

> <ChEBI ID of Ligand>


> <ChEMBL ID of Ligand>


> <DrugBank ID of Ligand>


> <IUPHAR_GRAC ID of Ligand>


> <KEGG ID of Ligand>


> <ZINC ID of Ligand>


> <Number of Protein Chains in Target (>1 implies a multichain complex)>
1

> <BindingDB Target Chain Sequence>
MAAQKNNAPKEYGADSITILEGLEAVRKRPGMYIGSTGERGLHHLIWEVVDNAVDEAMAGFATRVDVKIHADGSVEVRDDGRGIPVEMHATGMPTIDVVMTQLHAGGKFDGETYAVSGGLHGVGVSVVNALSTRLEATVLRDGYEWFQYYDRSVPGKLKQGGETKETGTTIRFWADPEIFETTDYNFETVARRLQEMAFLNKGLTIELTDERVTAEEVVDDVVKDTAEAPKTADEKAAEATGPSKVKHRVFHYPGGLVDYVKHINRTKTPIQQSIIDFDGKGPGHEVEIAMQWNAGYSESVHTFANTINTHEGGTHEEGFRAALTSVVNRYAKDKKLLKDKDPNLTGDDIREGLAAVISVKVAEPQFEGQTKTKLGNTEVKSFVQKICNEQLQHWFEANPAEAKTVVNKAVSSAQARIAARKARELVRRKSATDIGGLPGKLADCRSTDPSKSELYVVEGDSAGGSAKSGRDSMFQAILPLRGKIINVEKARIDRVLKNTEVQSIITALGTGIHDEFDISKLRYHKIVLMADADVDGQHISTLLLTLLFRFMKPLVENGHIFLAQPPLYKLKWQRSEPEFAYSDRERDGLLEAGRAAGKKINVDDGIQRYKGLGEMDAKELWETTMDPSVRVLRQVTLDDAAAADELFSILMGEDVEARRSFITRNAKDVRFLDV

> <PDB ID(s) of Target Chain>
4BAE

> <UniProt (SwissProt) Recommended Name of Target Chain>
DNA gyrase subunit B

> <UniProt (SwissProt) Entry Name of Target Chain>
GYRB_MYCSM

> <UniProt (SwissProt) Primary ID of Target Chain>
P0C559

> <UniProt (SwissProt) Secondary ID(s) of Target Chain>
P48355,Q59555

> <UniProt (SwissProt) Alternative ID(s) of Target Chain>


> <UniProt (TrEMBL) Submitted Name of Target Chain>


> <UniProt (TrEMBL) Entry Name of Target Chain>


> <UniProt (TrEMBL) Primary ID of Target Chain>


> <UniProt (TrEMBL) Secondary ID(s) of Target Chain>


> <UniProt (TrEMBL) Alternative ID(s) of Target Chain>


$$$$

  Mrv0541 03201611132D          

 27 30  0  0  0  0            999 V2000
   24.4422   -2.9543    0.0000 N   0  0  0  0  0  0  0  0  0  0  0  0
   24.1850   -3.7395    0.0000 C   0  0  0  0  0  0  0  0  0  0  0  0
   23.3782   -3.9079    0.0000 C   0  0  0  0  0  0  0  0  0  0  0  0
   22.8247   -3.2952    0.0000 N   0  0  0  0  0  0  0  0  0  0  0  0
   23.0819   -2.5141    0.0000 C   0  0  0  0  0  0  0  0  0  0  0  0
   23.8887   -2.3415    0.0000 C   0  0  0  0  0  0  0  0  0  0  0  0
   25.2489   -2.7818    0.0000 C   0  0  0  0  0  0  0  0  0  0  0  0
   25.8025   -3.3946    0.0000 O   0  0  0  0  0  0  0  0  0  0  0  0
   25.5063   -1.9964    0.0000 N   0  0  0  0  0  0  0  0  0  0  0  0
   20.8613   -4.1379    0.0000 S   0  0  0  0  0  0  0  0  0  0  0  0
   21.6842   -4.2227    0.0000 N   0  0  0  0  0  0  0  0  0  0  0  0
   22.0179   -3.4677    0.0000 C   0  0  0  0  0  0  0  0  0  0  0  0
   21.4052   -2.9184    0.0000 C   0  0  0  0  0  0  0  0  0  0  0  0
   20.6887   -3.3312    0.0000 C   0  0  0  0  0  0  0  0  0  0  0  0
   19.9764   -2.9184    0.0000 C   0  0  0  0  0  0  0  0  0  0  0  0
   19.9764   -2.0927    0.0000 C   0  0  0  0  0  0  0  0  0  0  0  0
   20.6887   -1.6798    0.0000 C   0  0  0  0  0  0  0  0  0  0  0  0
   21.4052   -2.0927    0.0000 C   0  0  0  0  0  0  0  0  0  0  0  0
   26.3018   -1.7811    0.0000 C   0  0  0  0  0  0  0  0  0  0  0  0
   26.5171   -0.9854    0.0000 C   0  0  0  0  0  0  0  0  0  0  0  0
   27.3128   -0.7701    0.0000 C   0  0  0  0  0  0  0  0  0  0  0  0
   27.8971   -1.3544    0.0000 C   0  0  0  0  0  0  0  0  0  0  0  0
   27.6817   -2.1543    0.0000 C   0  0  0  0  0  0  0  0  0  0  0  0
   26.8862   -2.3654    0.0000 C   0  0  0  0  0  0  0  0  0  0  0  0
   28.6969   -1.1391    0.0000 C   0  0  0  0  0  0  0  0  0  0  0  0
   28.9079   -0.3435    0.0000 O   0  0  0  0  0  0  0  0  0  0  0  0
   29.2770   -1.7236    0.0000 C   0  0  0  0  0  0  0  0  0  0  0  0
  1  2  1  0  0  0  0
  2  3  1  0  0  0  0
  3  4  1  0  0  0  0
  4  5  1  0  0  0  0
  5  6  1  0  0  0  0
  1  6  1  0  0  0  0
  7  8  2  0  0  0  0
  7  9  1  0  0  0  0
  1  7  1  0  0  0  0
 10 11  4  0  0  0  0
 11 12  4  0  0  0  0
 12 13  4  0  0  0  0
 13 14  4  0  0  0  0
 10 14  4  0  0  0  0
 15 16  4  0  0  0  0
 16 17  4  0  0  0  0
 17 18  4  0  0  0  0
 13 18  4  0  0  0  0
 14 15  4  0  0  0  0
  4 12  1  0  0  0  0
 19 20  4  0  0  0  0
 20 21  4  0  0  0  0
 21 22  4  0  0  0  0
 22 23  4  0  0  0  0
 23 24  4  0  0  0  0
 19 24  4  0  0  0  0
 25 26  2  0  0  0  0
 25 27  1  0  0  0  0
 22 25  1  0  0  0  0
  9 19  1  0  0  0  0
M  END
> <From> 
www.bindingDB.org

> <BindingDB Reactant_set_id>
50254195

> <Ligand InChI>
InChI=1S/C20H20N4O2S/c1-14(25)15-6-8-16(9-7-15)21-20(26)24-12-10-23(11-13-24)19-17-4-2-3-5-18(17)27-22-19/h2-9H,10-13H2,1H3,(H,21,26)

> <Ligand InChI Key>
UMVIDOQFMNRLQD-UHFFFAOYSA-N

> <BindingDB MonomerID>
50037083

> <BindingDB Ligand Name>
CHEMBL3355798

> <Target Name Assigned by Curator or DataSource>
DNA gyrase subunit B

> <Target Source Organism According to Curator or DataSource>


> <Ki (nM)>


> <IC50 (nM)>
 29300

> <Kd (nM)>


> <EC50 (nM)>


> <kon (M-1-s-1)>


> <koff (s-1)>


> <pH>


> <Temp C>


> <Curation/DataSource>
ChEMBL

> <Article DOI>
10.1016/j.bmc.2014.10.016

> <PMID>
25456076

> <PubChem AID>


> <Patent Number>


> <Authors>
Reddy, KI; Srihari, K; Renuka, J; Sree, KS; Chuppala, A; Jeankumar, VU; Sridevi, JP; Babu, KS; Yogeeswari, P; Sriram, D

> <Institution>
TBA

> <Link to Ligand in BindingDB>
http://www.bindingdb.org/bind/chemsearch/marvin/MolStructure.jsp?monomerid=50037083

> <Link to Ligand-Target Pair in BindingDB>
http://www.bindingdb.org/jsp/dbsearch/PrimarySearch_ki.jsp?energyterm=kJ/mole&tag=pol&polymerid=50006452&target=DNA+gyrase+subunit+B&column=ki&startPg=0&Increment=50&submit=Search

> <Link to Ligand-Target Pair in BindingDB>
http://www.bindingdb.org/jsp/dbsearch/PrimarySearch_ki.jsp?energyterm=kJ/mole&tag=r21&monomerid=50037083&enzyme=DNA+gyrase+subunit+B&column=ki&startPg=0&Increment=50&submit=Search

> <Ligand HET ID in PDB>


> <PDB ID(s) for Ligand-Target Complex>


> <PubChem CID>
118721096

> <PubChem SID>
313067057

> <ChEBI ID of Ligand>


> <ChEMBL ID of Ligand>


> <DrugBank ID of Ligand>


> <IUPHAR_GRAC ID of Ligand>


> <KEGG ID of Ligand>


> <ZINC ID of Ligand>


> <Number of Protein Chains in Target (>1 implies a multichain complex)>
1

> <BindingDB Target Chain Sequence>
MAAQKNNAPKEYGADSITILEGLEAVRKRPGMYIGSTGERGLHHLIWEVVDNAVDEAMAGFATRVDVKIHADGSVEVRDDGRGIPVEMHATGMPTIDVVMTQLHAGGKFDGETYAVSGGLHGVGVSVVNALSTRLEATVLRDGYEWFQYYDRSVPGKLKQGGETKETGTTIRFWADPEIFETTDYNFETVARRLQEMAFLNKGLTIELTDERVTAEEVVDDVVKDTAEAPKTADEKAAEATGPSKVKHRVFHYPGGLVDYVKHINRTKTPIQQSIIDFDGKGPGHEVEIAMQWNAGYSESVHTFANTINTHEGGTHEEGFRAALTSVVNRYAKDKKLLKDKDPNLTGDDIREGLAAVISVKVAEPQFEGQTKTKLGNTEVKSFVQKICNEQLQHWFEANPAEAKTVVNKAVSSAQARIAARKARELVRRKSATDIGGLPGKLADCRSTDPSKSELYVVEGDSAGGSAKSGRDSMFQAILPLRGKIINVEKARIDRVLKNTEVQSIITALGTGIHDEFDISKLRYHKIVLMADADVDGQHISTLLLTLLFRFMKPLVENGHIFLAQPPLYKLKWQRSEPEFAYSDRERDGLLEAGRAAGKKINVDDGIQRYKGLGEMDAKELWETTMDPSVRVLRQVTLDDAAAADELFSILMGEDVEARRSFITRNAKDVRFLDV

> <PDB ID(s) of Target Chain>
4BAE

> <UniProt (SwissProt) Recommended Name of Target Chain>
DNA gyrase subunit B

> <UniProt (SwissProt) Entry Name of Target Chain>
GYRB_MYCSM

> <UniProt (SwissProt) Primary ID of Target Chain>
P0C559

> <UniProt (SwissProt) Secondary ID(s) of Target Chain>
P48355,Q59555

> <UniProt (SwissProt) Alternative ID(s) of Target Chain>


> <UniProt (TrEMBL) Submitted Name of Target Chain>


> <UniProt (TrEMBL) Entry Name of Target Chain>


> <UniProt (TrEMBL) Primary ID of Target Chain>


> <UniProt (TrEMBL) Secondary ID(s) of Target Chain>


> <UniProt (TrEMBL) Alternative ID(s) of Target Chain>


$$$$

  Mrv0541 04171609262D          

 28 31  0  0  0  0            999 V2000
   -1.4361    0.4117    0.0000 C   0  0  0  0  0  0  0  0  0  0  0  0
   -1.4361   -0.4117    0.0000 C   0  0  0  0  0  0  0  0  0  0  0  0
   -0.7130   -0.8235    0.0000 C   0  0  0  0  0  0  0  0  0  0  0  0
   -0.7130    0.8235    0.0000 C   0  0  0  0  0  0  0  0  0  0  0  0
    0.0000    0.4117    0.0000 C   0  0  0  0  0  0  0  0  0  0  0  0
    0.0000   -0.4117    0.0000 C   0  0  0  0  0  0  0  0  0  0  0  0
    0.7130   -0.8235    0.0000 N   0  0  0  0  0  0  0  0  0  0  0  0
    1.4261   -0.4117    0.0000 C   0  0  0  0  0  0  0  0  0  0  0  0
    1.4261    0.4117    0.0000 C   0  0  0  0  0  0  0  0  0  0  0  0
    0.7130    0.8235    0.0000 C   0  0  0  0  0  0  0  0  0  0  0  0
    0.7130    1.6489    0.0000 N   0  0  0  0  0  0  0  0  0  0  0  0
   -0.0008    2.0627    0.0000 C   0  0  0  0  0  0  0  0  0  0  0  0
    0.0006    2.8877    0.0000 C   0  0  0  0  0  0  0  0  0  0  0  0
    0.7158    3.2990    0.0000 C   0  0  0  0  0  0  0  0  0  0  0  0
    1.4296    2.8853    0.0000 C   0  0  0  0  0  0  0  0  0  0  0  0
    1.4282    2.0603    0.0000 C   0  0  0  0  0  0  0  0  0  0  0  0
    0.7188    4.1245    0.0000 N   0  0  0  0  0  0  0  0  0  0  0  0
    1.4350    4.5350    0.0000 C   0  0  0  0  0  0  0  0  0  0  0  0
    2.0054    4.2031    0.0000 S   0  0  0  0  0  0  0  0  0  0  0  0
    1.4380    5.3604    0.0000 N   0  0  0  0  0  0  0  0  0  0  0  0
    2.1541    5.7709    0.0000 C   0  0  0  0  0  0  0  0  0  0  0  0
    2.1584    6.5960    0.0000 C   0  0  0  0  0  0  0  0  0  0  0  0
    2.8750    7.0048    0.0000 C   0  0  0  0  0  0  0  0  0  0  0  0
    3.5873    6.5887    0.0000 C   0  0  0  0  0  0  0  0  0  0  0  0
    3.5831    5.7637    0.0000 C   0  0  0  0  0  0  0  0  0  0  0  0
    2.8666    5.3548    0.0000 C   0  0  0  0  0  0  0  0  0  0  0  0
    1.9977   -0.7417    0.0000 C   0  0  0  0  0  0  0  0  0  0  0  0
    4.1606    6.9157    0.0000 F   0  0  0  0  0  0  0  0  0  0  0  0
  1  2  4  0  0  0  0
  2  3  4  0  0  0  0
  3  6  4  0  0  0  0
  5  4  4  0  0  0  0
  4  1  4  0  0  0  0
  5  6  4  0  0  0  0
  6  7  4  0  0  0  0
  7  8  4  0  0  0  0
  8  9  4  0  0  0  0
  9 10  4  0  0  0  0
 10  5  4  0  0  0  0
 11 12  1  0  0  0  0
 11 16  1  0  0  0  0
 12 13  1  0  0  0  0
 13 14  1  0  0  0  0
 14 15  1  0  0  0  0
 15 16  1  0  0  0  0
 10 11  1  0  0  0  0
 14 17  1  0  0  0  0
 17 18  1  0  0  0  0
 18 19  2  0  0  0  0
 18 20  1  0  0  0  0
 20 21  1  0  0  0  0
 21 22  4  0  0  0  0
 22 23  4  0  0  0  0
 23 24  4  0  0  0  0
 24 25  4  0  0  0  0
 25 26  4  0  0  0  0
 26 21  4  0  0  0  0
  8 27  1  0  0  0  0
 24 28  1  0  0  0  0
M  END
> <From> 
www.bindingDB.org

> <BindingDB Reactant_set_id>
50303842

> <Ligand InChI>
InChI=1S/C22H23FN4S/c1-15-14-21(19-4-2-3-5-20(19)24-15)27-12-10-18(11-13-27)26-22(28)25-17-8-6-16(23)7-9-17/h2-9,14,18H,10-13H2,1H3,(H2,25,26,28)

> <Ligand InChI Key>
ZDTXCKKOXNCUOX-UHFFFAOYSA-N

> <BindingDB MonomerID>
50067146

> <BindingDB Ligand Name>
CHEMBL3403267

> <Target Name Assigned by Curator or DataSource>
DNA gyrase subunit B

> <Target Source Organism According to Curator or DataSource>


> <Ki (nM)>


> <IC50 (nM)>
 29810

> <Kd (nM)>


> <EC50 (nM)>


> <kon (M-1-s-1)>


> <koff (s-1)>


> <pH>


> <Temp C>


> <Curation/DataSource>
ChEMBL

> <Article DOI>
10.1016/j.bmc.2015.03.004

> <PMID>
25801151

> <PubChem AID>


> <Patent Number>


> <Authors>
Medapi, B; Renuka, J; Saxena, S; Sridevi, JP; Medishetti, R; Kulkarni, P; Yogeeswari, P; Sriram, D

> <Institution>
Birla Institute of Technology&amp; Science-Pilani

> <Link to Ligand in BindingDB>
http://www.bindingdb.org/bind/chemsearch/marvin/MolStructure.jsp?monomerid=50067146

> <Link to Ligand-Target Pair in BindingDB>
http://www.bindingdb.org/jsp/dbsearch/PrimarySearch_ki.jsp?energyterm=kJ/mole&tag=pol&polymerid=50006452&target=DNA+gyrase+subunit+B&column=ki&startPg=0&Increment=50&submit=Search

> <Link to Ligand-Target Pair in BindingDB>
http://www.bindingdb.org/jsp/dbsearch/PrimarySearch_ki.jsp?energyterm=kJ/mole&tag=r21&monomerid=50067146&enzyme=DNA+gyrase+subunit+B&column=ki&startPg=0&Increment=50&submit=Search

> <Ligand HET ID in PDB>


> <PDB ID(s) for Ligand-Target Complex>


> <PubChem CID>
118729683

> <PubChem SID>
313071777

> <ChEBI ID of Ligand>


> <ChEMBL ID of Ligand>


> <DrugBank ID of Ligand>


> <IUPHAR_GRAC ID of Ligand>


> <KEGG ID of Ligand>


> <ZINC ID of Ligand>


> <Number of Protein Chains in Target (>1 implies a multichain complex)>
1

> <BindingDB Target Chain Sequence>
MAAQKNNAPKEYGADSITILEGLEAVRKRPGMYIGSTGERGLHHLIWEVVDNAVDEAMAGFATRVDVKIHADGSVEVRDDGRGIPVEMHATGMPTIDVVMTQLHAGGKFDGETYAVSGGLHGVGVSVVNALSTRLEATVLRDGYEWFQYYDRSVPGKLKQGGETKETGTTIRFWADPEIFETTDYNFETVARRLQEMAFLNKGLTIELTDERVTAEEVVDDVVKDTAEAPKTADEKAAEATGPSKVKHRVFHYPGGLVDYVKHINRTKTPIQQSIIDFDGKGPGHEVEIAMQWNAGYSESVHTFANTINTHEGGTHEEGFRAALTSVVNRYAKDKKLLKDKDPNLTGDDIREGLAAVISVKVAEPQFEGQTKTKLGNTEVKSFVQKICNEQLQHWFEANPAEAKTVVNKAVSSAQARIAARKARELVRRKSATDIGGLPGKLADCRSTDPSKSELYVVEGDSAGGSAKSGRDSMFQAILPLRGKIINVEKARIDRVLKNTEVQSIITALGTGIHDEFDISKLRYHKIVLMADADVDGQHISTLLLTLLFRFMKPLVENGHIFLAQPPLYKLKWQRSEPEFAYSDRERDGLLEAGRAAGKKINVDDGIQRYKGLGEMDAKELWETTMDPSVRVLRQVTLDDAAAADELFSILMGEDVEARRSFITRNAKDVRFLDV

> <PDB ID(s) of Target Chain>
4BAE

> <UniProt (SwissProt) Recommended Name of Target Chain>
DNA gyrase subunit B

> <UniProt (SwissProt) Entry Name of Target Chain>
GYRB_MYCSM

> <UniProt (SwissProt) Primary ID of Target Chain>
P0C559

> <UniProt (SwissProt) Secondary ID(s) of Target Chain>
P48355,Q59555

> <UniProt (SwissProt) Alternative ID(s) of Target Chain>


> <UniProt (TrEMBL) Submitted Name of Target Chain>


> <UniProt (TrEMBL) Entry Name of Target Chain>


> <UniProt (TrEMBL) Primary ID of Target Chain>


> <UniProt (TrEMBL) Secondary ID(s) of Target Chain>


> <UniProt (TrEMBL) Alternative ID(s) of Target Chain>


$$$$

  Mrv0541 03201611132D          

 31 34  0  0  0  0            999 V2000
    9.6939  -19.1742    0.0000 C   0  0  0  0  0  0  0  0  0  0  0  0
   16.1148  -19.5861    0.0000 C   0  0  0  0  0  0  0  0  0  0  0  0
   10.4046  -17.9344    0.0000 C   0  0  0  0  0  0  0  0  0  0  0  0
    8.2644  -18.3504    0.0000 C   0  0  0  0  0  0  0  0  0  0  0  0
   19.8536  -18.5684    0.0000 C   0  0  0  0  0  0  0  0  0  0  0  0
   16.1148  -20.4099    0.0000 C   0  0  0  0  0  0  0  0  0  0  0  0
   18.6179  -20.7086    0.0000 O   0  0  0  0  0  0  0  0  0  0  0  0
   18.6179  -19.2832    0.0000 O   0  0  0  0  0  0  0  0  0  0  0  0
   13.2597  -19.5861    0.0000 C   0  0  0  0  0  0  0  0  0  0  0  0
   11.1194  -18.3504    0.0000 N   0  0  0  0  0  0  0  0  0  0  0  0
   17.3823  -19.9980    0.0000 C   0  0  0  0  0  0  0  0  0  0  0  0
   14.6852  -19.5861    0.0000 C   0  0  0  0  0  0  0  0  0  0  0  0
   15.4000  -20.8218    0.0000 C   0  0  0  0  0  0  0  0  0  0  0  0
   12.5448  -19.1742    0.0000 C   0  0  0  0  0  0  0  0  0  0  0  0
   16.8941  -20.6624    0.0000 O   0  0  0  0  0  0  0  0  0  0  0  0
   16.8941  -19.3294    0.0000 C   0  0  0  0  0  0  0  0  0  0  0  0
   11.8343  -17.9344    0.0000 C   0  0  0  0  0  0  0  0  0  0  0  0
   14.6852  -20.4099    0.0000 C   0  0  0  0  0  0  0  0  0  0  0  0
    8.9792  -17.9344    0.0000 C   0  0  0  0  0  0  0  0  0  0  0  0
   18.2060  -19.9980    0.0000 C   0  0  0  0  0  0  0  0  0  0  0  0
   13.2597  -17.9344    0.0000 C   0  0  0  0  0  0  0  0  0  0  0  0
    9.6939  -18.3504    0.0000 C   0  0  0  0  0  0  0  0  0  0  0  0
   15.4000  -19.1742    0.0000 C   0  0  0  0  0  0  0  0  0  0  0  0
   12.5448  -18.3504    0.0000 N   0  0  0  0  0  0  0  0  0  0  0  0
   13.9745  -18.3504    0.0000 C   0  0  0  0  0  0  0  0  0  0  0  0
   11.8343  -17.1106    0.0000 S   0  0  0  0  0  0  0  0  0  0  0  0
   13.9745  -19.1742    0.0000 N   0  0  0  0  0  0  0  0  0  0  0  0
   19.4417  -19.2832    0.0000 C   0  0  0  0  0  0  0  0  0  0  0  0
    8.2644  -19.1742    0.0000 C   0  0  0  0  0  0  0  0  0  0  0  0
    8.9792  -19.5861    0.0000 C   0  0  0  0  0  0  0  0  0  0  0  0
    7.5569  -19.5831    0.0000 Cl  0  0  0  0  0  0  0  0  0  0  0  0
  4 19  4  0  0  0  0
 15 11  4  0  0  0  0
 23 12  4  0  0  0  0
 11 16  4  0  0  0  0
 10  3  1  0  0  0  0
  2 23  4  0  0  0  0
 20  7  2  0  0  0  0
 18 13  4  0  0  0  0
 28  5  1  0  0  0  0
 12 27  1  0  0  0  0
 22  1  4  0  0  0  0
  3 22  1  0  0  0  0
  6 13  4  0  0  0  0
  2  6  4  0  0  0  0
 11 20  1  0  0  0  0
 27  9  1  0  0  0  0
 29  4  4  0  0  0  0
 22 19  4  0  0  0  0
 12 18  4  0  0  0  0
 24 17  1  0  0  0  0
 17 10  1  0  0  0  0
 30 29  4  0  0  0  0
 24 21  1  0  0  0  0
 17 26  2  0  0  0  0
 15  6  4  0  0  0  0
 20  8  1  0  0  0  0
  1 30  4  0  0  0  0
  9 14  1  0  0  0  0
 27 25  1  0  0  0  0
  8 28  1  0  0  0  0
 16  2  4  0  0  0  0
 14 24  1  0  0  0  0
 21 25  1  0  0  0  0
 29 31  1  0  0  0  0
M  END
> <From> 
www.bindingDB.org

> <BindingDB Reactant_set_id>
50254198

> <Ligand InChI>
InChI=1S/C23H24ClN3O3S/c1-2-29-22(28)21-14-17-13-19(7-8-20(17)30-21)26-9-11-27(12-10-26)23(31)25-15-16-3-5-18(24)6-4-16/h3-8,13-14H,2,9-12,15H2,1H3,(H,25,31)

> <Ligand InChI Key>
RIFKDSWRJKRSCI-UHFFFAOYSA-N

> <BindingDB MonomerID>
50037086

> <BindingDB Ligand Name>
CHEMBL3355795

> <Target Name Assigned by Curator or DataSource>
DNA gyrase subunit B

> <Target Source Organism According to Curator or DataSource>


> <Ki (nM)>


> <IC50 (nM)>
 29900

> <Kd (nM)>


> <EC50 (nM)>


> <kon (M-1-s-1)>


> <koff (s-1)>


> <pH>


> <Temp C>


> <Curation/DataSource>
ChEMBL

> <Article DOI>
10.1016/j.bmc.2014.10.016

> <PMID>
25456076

> <PubChem AID>


> <Patent Number>


> <Authors>
Reddy, KI; Srihari, K; Renuka, J; Sree, KS; Chuppala, A; Jeankumar, VU; Sridevi, JP; Babu, KS; Yogeeswari, P; Sriram, D

> <Institution>
TBA

> <Link to Ligand in BindingDB>
http://www.bindingdb.org/bind/chemsearch/marvin/MolStructure.jsp?monomerid=50037086

> <Link to Ligand-Target Pair in BindingDB>
http://www.bindingdb.org/jsp/dbsearch/PrimarySearch_ki.jsp?energyterm=kJ/mole&tag=pol&polymerid=50006452&target=DNA+gyrase+subunit+B&column=ki&startPg=0&Increment=50&submit=Search

> <Link to Ligand-Target Pair in BindingDB>
http://www.bindingdb.org/jsp/dbsearch/PrimarySearch_ki.jsp?energyterm=kJ/mole&tag=r21&monomerid=50037086&enzyme=DNA+gyrase+subunit+B&column=ki&startPg=0&Increment=50&submit=Search

> <Ligand HET ID in PDB>


> <PDB ID(s) for Ligand-Target Complex>


> <PubChem CID>
118721095

> <PubChem SID>
313067060

> <ChEBI ID of Ligand>


> <ChEMBL ID of Ligand>


> <DrugBank ID of Ligand>


> <IUPHAR_GRAC ID of Ligand>


> <KEGG ID of Ligand>


> <ZINC ID of Ligand>


> <Number of Protein Chains in Target (>1 implies a multichain complex)>
1

> <BindingDB Target Chain Sequence>
MAAQKNNAPKEYGADSITILEGLEAVRKRPGMYIGSTGERGLHHLIWEVVDNAVDEAMAGFATRVDVKIHADGSVEVRDDGRGIPVEMHATGMPTIDVVMTQLHAGGKFDGETYAVSGGLHGVGVSVVNALSTRLEATVLRDGYEWFQYYDRSVPGKLKQGGETKETGTTIRFWADPEIFETTDYNFETVARRLQEMAFLNKGLTIELTDERVTAEEVVDDVVKDTAEAPKTADEKAAEATGPSKVKHRVFHYPGGLVDYVKHINRTKTPIQQSIIDFDGKGPGHEVEIAMQWNAGYSESVHTFANTINTHEGGTHEEGFRAALTSVVNRYAKDKKLLKDKDPNLTGDDIREGLAAVISVKVAEPQFEGQTKTKLGNTEVKSFVQKICNEQLQHWFEANPAEAKTVVNKAVSSAQARIAARKARELVRRKSATDIGGLPGKLADCRSTDPSKSELYVVEGDSAGGSAKSGRDSMFQAILPLRGKIINVEKARIDRVLKNTEVQSIITALGTGIHDEFDISKLRYHKIVLMADADVDGQHISTLLLTLLFRFMKPLVENGHIFLAQPPLYKLKWQRSEPEFAYSDRERDGLLEAGRAAGKKINVDDGIQRYKGLGEMDAKELWETTMDPSVRVLRQVTLDDAAAADELFSILMGEDVEARRSFITRNAKDVRFLDV

> <PDB ID(s) of Target Chain>
4BAE

> <UniProt (SwissProt) Recommended Name of Target Chain>
DNA gyrase subunit B

> <UniProt (SwissProt) Entry Name of Target Chain>
GYRB_MYCSM

> <UniProt (SwissProt) Primary ID of Target Chain>
P0C559

> <UniProt (SwissProt) Secondary ID(s) of Target Chain>
P48355,Q59555

> <UniProt (SwissProt) Alternative ID(s) of Target Chain>


> <UniProt (TrEMBL) Submitted Name of Target Chain>


> <UniProt (TrEMBL) Entry Name of Target Chain>


> <UniProt (TrEMBL) Primary ID of Target Chain>


> <UniProt (TrEMBL) Secondary ID(s) of Target Chain>


> <UniProt (TrEMBL) Alternative ID(s) of Target Chain>


$$$$

  Mrv0541 04241520582D          

 29 31  0  0  0  0            999 V2000
    2.0987  -14.5397    0.0000 C   0  0  0  0  0  0  0  0  0  0  0  0
    2.9224  -14.5408    0.0000 C   0  0  0  0  0  0  0  0  0  0  0  0
    3.3355  -13.8286    0.0000 C   0  0  0  0  0  0  0  0  0  0  0  0
    2.9219  -13.1149    0.0000 C   0  0  0  0  0  0  0  0  0  0  0  0
    2.0951  -13.1177    0.0000 C   0  0  0  0  0  0  0  0  0  0  0  0
    1.6899  -13.8304    0.0000 C   0  0  0  0  0  0  0  0  0  0  0  0
    4.1654  -13.8327    0.0000 C   0  0  0  0  0  0  0  0  0  0  0  0
    4.6479  -14.5015    0.0000 C   0  0  0  0  0  0  0  0  0  0  0  0
    5.4332  -14.2478    0.0000 C   0  0  0  0  0  0  0  0  0  0  0  0
    5.4329  -13.4228    0.0000 C   0  0  0  0  0  0  0  0  0  0  0  0
    4.6482  -13.1642    0.0000 O   0  0  0  0  0  0  0  0  0  0  0  0
    1.6883  -15.2551    0.0000 Cl  0  0  0  0  0  0  0  0  0  0  0  0
    3.3356  -12.3988    0.0000 Cl  0  0  0  0  0  0  0  0  0  0  0  0
    6.1537  -13.0175    0.0000 C   0  0  0  0  0  0  0  0  0  0  0  0
    6.1645  -12.1921    0.0000 C   0  0  0  0  0  0  0  0  0  0  0  0
    6.8417  -11.7149    0.0000 S   0  0  0  0  0  0  0  0  0  0  0  0
    6.5983  -10.9264    0.0000 C   0  0  0  0  0  0  0  0  0  0  0  0
    5.7727  -10.9158    0.0000 N   0  0  0  0  0  0  0  0  0  0  0  0
    5.5088  -11.6973    0.0000 C   0  0  0  0  0  0  0  0  0  0  0  0
    4.7197  -11.9388    0.0000 O   0  0  0  0  0  0  0  0  0  0  0  0
    7.0897  -10.2643    0.0000 S   0  0  0  0  0  0  0  0  0  0  0  0
    5.3523  -10.2036    0.0000 C   0  0  1  0  0  0  0  0  0  0  0  0
    5.7615   -9.4850    0.0000 C   0  0  0  0  0  0  0  0  0  0  0  0
    4.5270  -10.2101    0.0000 C   0  0  0  0  0  0  0  0  0  0  0  0
    4.1107   -9.4979    0.0000 C   0  0  0  0  0  0  0  0  0  0  0  0
    3.2853   -9.5043    0.0000 O   0  0  0  0  0  0  0  0  0  0  0  0
    4.5158   -8.7793    0.0000 O   0  0  0  0  0  0  0  0  0  0  0  0
    6.5869   -9.4786    0.0000 O   0  0  0  0  0  0  0  0  0  0  0  0
    5.3412   -8.7729    0.0000 O   0  0  0  0  0  0  0  0  0  0  0  0
  1  2  4  0  0  0  0
  2  3  4  0  0  0  0
  3  4  4  0  0  0  0
  4  5  4  0  0  0  0
  5  6  4  0  0  0  0
  6  1  4  0  0  0  0
 10 11  4  0  0  0  0
  8  9  4  0  0  0  0
  7  8  4  0  0  0  0
  9 10  4  0  0  0  0
 11  7  4  0  0  0  0
  3  7  1  0  0  0  0
  1 12  1  0  0  0  0
  4 13  1  0  0  0  0
 10 14  1  0  0  0  0
 14 15  2  0  0  0  0
 18 19  1  0  0  0  0
 16 17  1  0  0  0  0
 15 16  1  0  0  0  0
 17 18  1  0  0  0  0
 19 15  1  0  0  0  0
 19 20  2  0  0  0  0
 17 21  2  0  0  0  0
 22 18  1  6  0  0  0
 22 23  1  0  0  0  0
 22 24  1  0  0  0  0
 24 25  1  0  0  0  0
 25 26  1  0  0  0  0
 25 27  2  0  0  0  0
 23 28  2  0  0  0  0
 23 29  1  0  0  0  0
M  END
> <From> 
www.bindingDB.org

> <BindingDB Reactant_set_id>
50088868

> <Ligand InChI>
InChI=1S/C18H11Cl2NO6S2/c19-8-1-3-11(20)10(5-8)13-4-2-9(27-13)6-14-16(24)21(18(28)29-14)12(17(25)26)7-15(22)23/h1-6,12H,7H2,(H,22,23)(H,25,26)/b14-6+/t12-/m1/s1

> <Ligand InChI Key>
HJIQZYMJLJJHQY-CHJAJTDHSA-N

> <BindingDB MonomerID>
50009581

> <BindingDB Ligand Name>
CHEMBL3234495

> <Target Name Assigned by Curator or DataSource>
DNA Gyrase Subunit B

> <Target Source Organism According to Curator or DataSource>
Staphylococcus aureus

> <Ki (nM)>


> <IC50 (nM)>
 30000

> <Kd (nM)>


> <EC50 (nM)>


> <kon (M-1-s-1)>


> <koff (s-1)>


> <pH>


> <Temp C>


> <Curation/DataSource>
ChEMBL

> <Article DOI>
10.1016/j.bmc.2014.02.020

> <PMID>
24629449

> <PubChem AID>


> <Patent Number>


> <Authors>
Werner, MM; Li, Z; Zauhar, RJ

> <Institution>
University of the Sciences

> <Link to Ligand in BindingDB>
http://www.bindingdb.org/bind/chemsearch/marvin/MolStructure.jsp?monomerid=50009581

> <Link to Ligand-Target Pair in BindingDB>
http://www.bindingdb.org/jsp/dbsearch/PrimarySearch_ki.jsp?energyterm=kJ/mole&tag=pol&polymerid=2626&target=DNA+Gyrase+Subunit+B&column=ki&startPg=0&Increment=50&submit=Search

> <Link to Ligand-Target Pair in BindingDB>
http://www.bindingdb.org/jsp/dbsearch/PrimarySearch_ki.jsp?energyterm=kJ/mole&tag=r21&monomerid=50009581&enzyme=DNA+Gyrase+Subunit+B&column=ki&startPg=0&Increment=50&submit=Search

> <Ligand HET ID in PDB>


> <PDB ID(s) for Ligand-Target Complex>


> <PubChem CID>
41260098

> <PubChem SID>
242057416

> <ChEBI ID of Ligand>


> <ChEMBL ID of Ligand>
CHEMBL3234495

> <DrugBank ID of Ligand>


> <IUPHAR_GRAC ID of Ligand>


> <KEGG ID of Ligand>


> <ZINC ID of Ligand>


> <Number of Protein Chains in Target (>1 implies a multichain complex)>
1

> <BindingDB Target Chain Sequence>
MVTALSDVNNTDNYGAGQIQVLEGLEAVRKRPGMYIGSTSERGLHHLVWEIVDNSIDEALAGYANQIEVVIEKDNWIKVTDNGRGIPVDIQEKMGRPAVEVILTVLHAGGKFGGGGYKVSGGLHGVGSSVVNALSQDLEVYVHRNETIYHQAYKKGVPQFDLKEVGTTDKTGTVIRFKADGEIFTETTVYNYETLQQRIRELAFLNKGIQITLRDERDEENVREDSYHYEGGIKSYVELLNENKEPIHDEPIYIHQSKDDIEVEIAIQYNSGYATNLLTYANNIHTYEGGTHEDGFKRALTRVLNSYGLSSKIMKEEKDRLSGEDTREGMTAIISIKHGDPQFEGQTKTKLGNSEVRQVVDKLFSEHFERFLYENPQVARTVVEKGIMAARARVAAKKAREVTRRKSALDVASLPGKLADCSSKSPEECEIFLVEGDSAGGSTKSGRDSRTQAILPLRGKILNVEKARLDRILNNNEIRQMITAFGTGIGGDFDLAKARYHKIVIMTDADVDGAHIRTLLLTFFYRFMRPLIEAGYVYIAQPPLYKLTQGKQKYYVYNDRELDKLKSELNPTPKWSIARYKGLGEMNADQLWETTMNPEHRALLQVKLEDAIEADQTFEMLMGDVVENRRQFIEDNAVYANLDF

> <PDB ID(s) of Target Chain>


> <UniProt (SwissProt) Recommended Name of Target Chain>
DNA gyrase subunit B

> <UniProt (SwissProt) Entry Name of Target Chain>
GYRB_STAAU

> <UniProt (SwissProt) Primary ID of Target Chain>
P0A0K8

> <UniProt (SwissProt) Secondary ID(s) of Target Chain>
P20832

> <UniProt (SwissProt) Alternative ID(s) of Target Chain>


> <UniProt (TrEMBL) Submitted Name of Target Chain>


> <UniProt (TrEMBL) Entry Name of Target Chain>


> <UniProt (TrEMBL) Primary ID of Target Chain>


> <UniProt (TrEMBL) Secondary ID(s) of Target Chain>


> <UniProt (TrEMBL) Alternative ID(s) of Target Chain>


$$$$

  SciTegic12211705542D

 29 32  0  0  0  0            999 V2000
    9.1525   -6.2700    0.0000 C   0  0
    8.4451   -6.6816    0.0000 C   0  0
    9.1490   -5.4528    0.0000 O   0  0
    9.8592   -6.6797    0.0000 N   0  0
   10.5665   -6.2682    0.0000 C   0  0
   11.2774   -6.6738    0.0000 C   0  0
   11.9806   -6.2622    0.0000 C   0  0
   12.6914   -6.6719    0.0000 C   0  0
   13.3988   -6.2603    0.0000 C   0  0
   13.3953   -5.4431    0.0000 C   0  0
   12.6845   -5.0375    0.0000 C   0  0
   11.9813   -5.4450    0.0000 N   0  0
    8.4445   -7.4988    0.0000 N   0  0
    7.7412   -7.9104    0.0000 C   0  0
    7.7447   -8.7275    0.0000 C   0  0
    8.4514   -9.1331    0.0000 N   0  0
    9.1587   -8.7216    0.0000 C   0  0
    9.1553   -7.9044    0.0000 C   0  0
    8.4576  -11.5847    0.0000 N   0  0
    9.1650  -11.1731    0.0000 C   0  0
    9.1615  -10.3559    0.0000 C   0  0
    8.4548   -9.9503    0.0000 C   0  0
    7.7475  -10.3619    0.0000 C   0  0
    7.0408   -9.9563    0.0000 C   0  0
    6.3334  -10.3638    0.0000 C   0  0
    6.3328  -11.1810    0.0000 C   0  0
    7.0436  -11.5907    0.0000 C   0  0
    7.7509  -11.1791    0.0000 C   0  0
    5.6295  -11.5925    0.0000 Cl  0  0
  1  2  1  0
  1  3  2  0
  1  4  1  0
  5  6  1  0
  7  8  1  0
  8  9  2  0
  9 10  1  0
 10 11  2  0
 11 12  1  0
  7 12  2  0
  6  7  1  0
  4  5  1  0
 13 14  1  0
 14 15  1  0
 15 16  1  0
 16 17  1  0
 17 18  1  0
 13 18  1  0
 19 20  2  0
 20 21  1  0
 21 22  2  0
 22 23  1  0
 23 24  2  0
 24 25  1  0
 25 26  2  0
 26 27  1  0
 27 28  2  0
 19 28  1  0
 23 28  1  0
 26 29  1  0
 16 22  1  0
  2 13  1  0
M  END
> <From> 
www.bindingDB.org

> <BindingDB Reactant_set_id>
50528075

> <Ligand InChI>
InChI=1S/C22H24ClN5O/c23-17-4-5-19-20(15-17)25-10-7-21(19)28-13-11-27(12-14-28)16-22(29)26-9-6-18-3-1-2-8-24-18/h1-5,7-8,10,15H,6,9,11-14,16H2,(H,26,29)

> <Ligand InChI Key>
SKQILXNSTPPCAP-UHFFFAOYSA-N

> <BindingDB MonomerID>
50202206

> <BindingDB Ligand Name>
CHEMBL3912093

> <Target Name Assigned by Curator or DataSource>
DNA gyrase subunit B

> <Target Source Organism According to Curator or DataSource>


> <Ki (nM)>


> <IC50 (nM)>
 30400

> <Kd (nM)>


> <EC50 (nM)>


> <kon (M-1-s-1)>


> <koff (s-1)>


> <pH>


> <Temp C>


> <Curation/DataSource>
ChEMBL

> <Article DOI>
10.1016/j.ejmech.2016.06.042

> <PMID>
27371925

> <PubChem AID>


> <Patent Number>


> <Authors>
Jeankumar, VU; Reshma, RS; Vats, R; Janupally, R; Saxena, S; Yogeeswari, P; Sriram, D

> <Institution>
Birla Institute of Technology&amp; Science-Pilani

> <Link to Ligand in BindingDB>
http://www.bindingdb.org/bind/chemsearch/marvin/MolStructure.jsp?monomerid=50202206

> <Link to Ligand-Target Pair in BindingDB>
http://www.bindingdb.org/jsp/dbsearch/PrimarySearch_ki.jsp?energyterm=kJ/mole&tag=pol&polymerid=50006452&target=DNA+gyrase+subunit+B&column=ki&startPg=0&Increment=50&submit=Search

> <Link to Ligand-Target Pair in BindingDB>
http://www.bindingdb.org/jsp/dbsearch/PrimarySearch_ki.jsp?energyterm=kJ/mole&tag=r21&monomerid=50202206&enzyme=DNA+gyrase+subunit+B&column=ki&startPg=0&Increment=50&submit=Search

> <Ligand HET ID in PDB>


> <PDB ID(s) for Ligand-Target Complex>


> <PubChem CID>
134133018

> <PubChem SID>
375979587

> <ChEBI ID of Ligand>


> <ChEMBL ID of Ligand>


> <DrugBank ID of Ligand>


> <IUPHAR_GRAC ID of Ligand>


> <KEGG ID of Ligand>


> <ZINC ID of Ligand>


> <Number of Protein Chains in Target (>1 implies a multichain complex)>
1

> <BindingDB Target Chain Sequence>
MAAQKNNAPKEYGADSITILEGLEAVRKRPGMYIGSTGERGLHHLIWEVVDNAVDEAMAGFATRVDVKIHADGSVEVRDDGRGIPVEMHATGMPTIDVVMTQLHAGGKFDGETYAVSGGLHGVGVSVVNALSTRLEATVLRDGYEWFQYYDRSVPGKLKQGGETKETGTTIRFWADPEIFETTDYNFETVARRLQEMAFLNKGLTIELTDERVTAEEVVDDVVKDTAEAPKTADEKAAEATGPSKVKHRVFHYPGGLVDYVKHINRTKTPIQQSIIDFDGKGPGHEVEIAMQWNAGYSESVHTFANTINTHEGGTHEEGFRAALTSVVNRYAKDKKLLKDKDPNLTGDDIREGLAAVISVKVAEPQFEGQTKTKLGNTEVKSFVQKICNEQLQHWFEANPAEAKTVVNKAVSSAQARIAARKARELVRRKSATDIGGLPGKLADCRSTDPSKSELYVVEGDSAGGSAKSGRDSMFQAILPLRGKIINVEKARIDRVLKNTEVQSIITALGTGIHDEFDISKLRYHKIVLMADADVDGQHISTLLLTLLFRFMKPLVENGHIFLAQPPLYKLKWQRSEPEFAYSDRERDGLLEAGRAAGKKINVDDGIQRYKGLGEMDAKELWETTMDPSVRVLRQVTLDDAAAADELFSILMGEDVEARRSFITRNAKDVRFLDV

> <PDB ID(s) of Target Chain>
4BAE

> <UniProt (SwissProt) Recommended Name of Target Chain>
DNA gyrase subunit B

> <UniProt (SwissProt) Entry Name of Target Chain>
GYRB_MYCSM

> <UniProt (SwissProt) Primary ID of Target Chain>
P0C559

> <UniProt (SwissProt) Secondary ID(s) of Target Chain>
P48355,Q59555

> <UniProt (SwissProt) Alternative ID(s) of Target Chain>


> <UniProt (TrEMBL) Submitted Name of Target Chain>


> <UniProt (TrEMBL) Entry Name of Target Chain>


> <UniProt (TrEMBL) Primary ID of Target Chain>


> <UniProt (TrEMBL) Secondary ID(s) of Target Chain>


> <UniProt (TrEMBL) Alternative ID(s) of Target Chain>


$$$$

  SciTegic04201612532D

 31 34  0  0  0  0            999 V2000
   -1.2964    1.4973    0.0000 N   0  0
   -2.6111    0.7486    0.0000 C   0  0
   -2.6111   -0.7486    0.0000 C   0  0
   -1.2964   -1.4973    0.0000 C   0  0
    0.0000   -0.7486    0.0000 C   0  0
    1.2964   -1.4973    0.0000 C   0  0
    2.5929   -0.7486    0.0000 C   0  0
    2.5929    0.7486    0.0000 C   0  0
    1.2964    1.4973    0.0000 C   0  0
    0.0000    0.7486    0.0000 C   0  0
   -3.9122   -1.4966    0.0000 C   0  0
   -4.9506   -0.8952    0.0000 O   0  0
   -1.2907   -2.9981    0.0000 N   0  0
   -2.5870   -3.7544    0.0000 C   0  0
   -2.5835   -5.2544    0.0000 C   0  0
   -3.8807   -6.0076    0.0000 C   0  0
   -5.1815   -5.2608    0.0000 C   0  0
   -5.1852   -3.7608    0.0000 C   0  0
   -3.8880   -3.0076    0.0000 C   0  0
   -6.4810   -6.0117    0.0000 O   0  0
   -7.7815   -5.2626    0.0000 C   0  0
   -9.0810   -6.0135    0.0000 C   0  0
  -10.3815   -5.2644    0.0000 C   0  0
  -14.2755   -7.5217    0.0000 O   0  0
  -14.2791   -6.0217    0.0000 C   0  0
  -12.9819   -5.2686    0.0000 C   0  0
  -11.6810   -6.0154    0.0000 N   0  0
  -11.6774   -7.5154    0.0000 C   0  0
  -12.9746   -8.2686    0.0000 C   0  0
   -3.9138   -2.4966    0.0000 O   0  0
    3.6321   -1.3486    0.0000 F   0  0
  1  2  2  0
  2  3  1  0
  3  4  2  0
  4  5  1  0
  5  6  2  0
  6  7  1  0
  7  8  2  0
  8  9  1  0
  9 10  2  0
  1 10  1  0
  5 10  1  0
 11 12  2  0
  3 11  1  0
 14 15  1  0
 15 16  2  0
 16 17  1  0
 17 18  2  0
 18 19  1  0
 14 19  2  0
 21 22  1  0
 22 23  1  0
 20 21  1  0
 24 25  1  0
 25 26  1  0
 26 27  1  0
 27 28  1  0
 28 29  1  0
 24 29  1  0
 23 27  1  0
 17 20  1  0
 13 14  1  0
  4 13  1  0
 11 30  1  0
  7 31  1  0
M  END
> <From> 
www.bindingDB.org

> <BindingDB Reactant_set_id>
50426760

> <Ligand InChI>
InChI=1S/C23H24FN3O4/c24-16-2-7-21-19(14-16)22(20(15-25-21)23(28)29)26-17-3-5-18(6-4-17)31-11-1-8-27-9-12-30-13-10-27/h2-7,14-15H,1,8-13H2,(H,25,26)(H,28,29)

> <Ligand InChI Key>
VWANAVLMRAYBBH-UHFFFAOYSA-N

> <BindingDB MonomerID>
50126184

> <BindingDB Ligand Name>
CHEMBL3628457

> <Target Name Assigned by Curator or DataSource>
DNA gyrase subunit B

> <Target Source Organism According to Curator or DataSource>


> <Ki (nM)>


> <IC50 (nM)>
 31280

> <Kd (nM)>


> <EC50 (nM)>


> <kon (M-1-s-1)>


> <koff (s-1)>


> <pH>


> <Temp C>


> <Curation/DataSource>
ChEMBL

> <Article DOI>
10.1016/j.ejmech.2015.06.032

> <PMID>
26318054

> <PubChem AID>


> <Patent Number>


> <Authors>
Medapi, B; Suryadevara, P; Renuka, J; Sridevi, JP; Yogeeswari, P; Sriram, D

> <Institution>
Birla Institute of Technology&amp;Science

> <Link to Ligand in BindingDB>
http://www.bindingdb.org/bind/chemsearch/marvin/MolStructure.jsp?monomerid=50126184

> <Link to Ligand-Target Pair in BindingDB>
http://www.bindingdb.org/jsp/dbsearch/PrimarySearch_ki.jsp?energyterm=kJ/mole&tag=pol&polymerid=50006452&target=DNA+gyrase+subunit+B&column=ki&startPg=0&Increment=50&submit=Search

> <Link to Ligand-Target Pair in BindingDB>
http://www.bindingdb.org/jsp/dbsearch/PrimarySearch_ki.jsp?energyterm=kJ/mole&tag=r21&monomerid=50126184&enzyme=DNA+gyrase+subunit+B&column=ki&startPg=0&Increment=50&submit=Search

> <Ligand HET ID in PDB>


> <PDB ID(s) for Ligand-Target Complex>


> <PubChem CID>
122193471

> <PubChem SID>
321902391

> <ChEBI ID of Ligand>


> <ChEMBL ID of Ligand>


> <DrugBank ID of Ligand>


> <IUPHAR_GRAC ID of Ligand>


> <KEGG ID of Ligand>


> <ZINC ID of Ligand>


> <Number of Protein Chains in Target (>1 implies a multichain complex)>
1

> <BindingDB Target Chain Sequence>
MAAQKNNAPKEYGADSITILEGLEAVRKRPGMYIGSTGERGLHHLIWEVVDNAVDEAMAGFATRVDVKIHADGSVEVRDDGRGIPVEMHATGMPTIDVVMTQLHAGGKFDGETYAVSGGLHGVGVSVVNALSTRLEATVLRDGYEWFQYYDRSVPGKLKQGGETKETGTTIRFWADPEIFETTDYNFETVARRLQEMAFLNKGLTIELTDERVTAEEVVDDVVKDTAEAPKTADEKAAEATGPSKVKHRVFHYPGGLVDYVKHINRTKTPIQQSIIDFDGKGPGHEVEIAMQWNAGYSESVHTFANTINTHEGGTHEEGFRAALTSVVNRYAKDKKLLKDKDPNLTGDDIREGLAAVISVKVAEPQFEGQTKTKLGNTEVKSFVQKICNEQLQHWFEANPAEAKTVVNKAVSSAQARIAARKARELVRRKSATDIGGLPGKLADCRSTDPSKSELYVVEGDSAGGSAKSGRDSMFQAILPLRGKIINVEKARIDRVLKNTEVQSIITALGTGIHDEFDISKLRYHKIVLMADADVDGQHISTLLLTLLFRFMKPLVENGHIFLAQPPLYKLKWQRSEPEFAYSDRERDGLLEAGRAAGKKINVDDGIQRYKGLGEMDAKELWETTMDPSVRVLRQVTLDDAAAADELFSILMGEDVEARRSFITRNAKDVRFLDV

> <PDB ID(s) of Target Chain>
4BAE

> <UniProt (SwissProt) Recommended Name of Target Chain>
DNA gyrase subunit B

> <UniProt (SwissProt) Entry Name of Target Chain>
GYRB_MYCSM

> <UniProt (SwissProt) Primary ID of Target Chain>
P0C559

> <UniProt (SwissProt) Secondary ID(s) of Target Chain>
P48355,Q59555

> <UniProt (SwissProt) Alternative ID(s) of Target Chain>


> <UniProt (TrEMBL) Submitted Name of Target Chain>


> <UniProt (TrEMBL) Entry Name of Target Chain>


> <UniProt (TrEMBL) Primary ID of Target Chain>


> <UniProt (TrEMBL) Secondary ID(s) of Target Chain>


> <UniProt (TrEMBL) Alternative ID(s) of Target Chain>


$$$$

  SciTegic12211718052D

 32 35  0  0  0  0            999 V2000
   10.7911   -6.9782    0.0000 C   0  0
   10.0860   -7.3894    0.0000 C   0  0
   10.7875   -6.1611    0.0000 O   0  0
   11.5000   -7.3801    0.0000 N   0  0
   10.0896   -8.2066    0.0000 N   0  0
    9.3845   -8.6220    0.0000 C   0  0
    9.3923   -9.4391    0.0000 C   0  0
   10.1011   -9.8409    0.0000 N   0  0
   10.8063   -9.4297    0.0000 C   0  0
   10.7985   -8.6126    0.0000 C   0  0
   10.1163  -12.2924    0.0000 N   0  0
   10.8214  -11.8812    0.0000 C   0  0
   10.8136  -11.0641    0.0000 C   0  0
   10.1048  -10.6581    0.0000 C   0  0
    9.3996  -11.0735    0.0000 C   0  0
    8.6908  -10.6675    0.0000 C   0  0
    7.9856  -11.0828    0.0000 C   0  0
    7.9893  -11.9000    0.0000 C   0  0
    8.7023  -12.3018    0.0000 C   0  0
    9.4074  -11.8906    0.0000 C   0  0
    7.2841  -12.3112    0.0000 Cl  0  0
   12.2051   -6.9688    0.0000 C   0  0
   12.9181   -7.3748    0.0000 C   0  0
   13.6233   -6.9595    0.0000 C   0  0
   13.6155   -6.1423    0.0000 C   0  0
   12.9066   -5.7405    0.0000 C   0  0
   12.2015   -6.1517    0.0000 C   0  0
   12.9218   -8.1920    0.0000 Cl  0  0
   12.8972   -4.9193    0.0000 C   0  0
   12.8926   -4.1758    0.0000 F   0  0
   13.5558   -4.3757    0.0000 F   0  0
   12.2319   -4.3838    0.0000 F   0  0
  1  2  1  0
  1  3  2  0
  1  4  1  0
  5  6  1  0
  6  7  1  0
  7  8  1  0
  8  9  1  0
  9 10  1  0
  5 10  1  0
 11 12  2  0
 12 13  1  0
 13 14  2  0
 14 15  1  0
 15 16  2  0
 16 17  1  0
 17 18  2  0
 18 19  1  0
 19 20  2  0
 11 20  1  0
 15 20  1  0
 18 21  1  0
  8 14  1  0
  2  5  1  0
 22 23  1  0
 23 24  2  0
 24 25  1  0
 25 26  2  0
 26 27  1  0
 22 27  2  0
 23 28  1  0
  4 22  1  0
 29 30  1  0
 29 31  1  0
 29 32  1  0
 26 29  1  0
M  END
> <From> 
www.bindingDB.org

> <BindingDB Reactant_set_id>
50528079

> <Ligand InChI>
InChI=1S/C22H19Cl2F3N4O/c23-15-2-3-16-18(12-15)28-6-5-20(16)31-9-7-30(8-10-31)13-21(32)29-19-11-14(22(25,26)27)1-4-17(19)24/h1-6,11-12H,7-10,13H2,(H,29,32)

> <Ligand InChI Key>
XTNZTEVRNLRTBZ-UHFFFAOYSA-N

> <BindingDB MonomerID>
50202223

> <BindingDB Ligand Name>
CHEMBL3930157

> <Target Name Assigned by Curator or DataSource>
DNA gyrase subunit B

> <Target Source Organism According to Curator or DataSource>


> <Ki (nM)>


> <IC50 (nM)>
 31300

> <Kd (nM)>


> <EC50 (nM)>


> <kon (M-1-s-1)>


> <koff (s-1)>


> <pH>


> <Temp C>


> <Curation/DataSource>
ChEMBL

> <Article DOI>
10.1016/j.ejmech.2016.06.042

> <PMID>
27371925

> <PubChem AID>


> <Patent Number>


> <Authors>
Jeankumar, VU; Reshma, RS; Vats, R; Janupally, R; Saxena, S; Yogeeswari, P; Sriram, D

> <Institution>
Birla Institute of Technology&amp; Science-Pilani

> <Link to Ligand in BindingDB>
http://www.bindingdb.org/bind/chemsearch/marvin/MolStructure.jsp?monomerid=50202223

> <Link to Ligand-Target Pair in BindingDB>
http://www.bindingdb.org/jsp/dbsearch/PrimarySearch_ki.jsp?energyterm=kJ/mole&tag=pol&polymerid=50006452&target=DNA+gyrase+subunit+B&column=ki&startPg=0&Increment=50&submit=Search

> <Link to Ligand-Target Pair in BindingDB>
http://www.bindingdb.org/jsp/dbsearch/PrimarySearch_ki.jsp?energyterm=kJ/mole&tag=r21&monomerid=50202223&enzyme=DNA+gyrase+subunit+B&column=ki&startPg=0&Increment=50&submit=Search

> <Ligand HET ID in PDB>


> <PDB ID(s) for Ligand-Target Complex>


> <PubChem CID>
134137622

> <PubChem SID>
375979591

> <ChEBI ID of Ligand>


> <ChEMBL ID of Ligand>


> <DrugBank ID of Ligand>


> <IUPHAR_GRAC ID of Ligand>


> <KEGG ID of Ligand>


> <ZINC ID of Ligand>


> <Number of Protein Chains in Target (>1 implies a multichain complex)>
1

> <BindingDB Target Chain Sequence>
MAAQKNNAPKEYGADSITILEGLEAVRKRPGMYIGSTGERGLHHLIWEVVDNAVDEAMAGFATRVDVKIHADGSVEVRDDGRGIPVEMHATGMPTIDVVMTQLHAGGKFDGETYAVSGGLHGVGVSVVNALSTRLEATVLRDGYEWFQYYDRSVPGKLKQGGETKETGTTIRFWADPEIFETTDYNFETVARRLQEMAFLNKGLTIELTDERVTAEEVVDDVVKDTAEAPKTADEKAAEATGPSKVKHRVFHYPGGLVDYVKHINRTKTPIQQSIIDFDGKGPGHEVEIAMQWNAGYSESVHTFANTINTHEGGTHEEGFRAALTSVVNRYAKDKKLLKDKDPNLTGDDIREGLAAVISVKVAEPQFEGQTKTKLGNTEVKSFVQKICNEQLQHWFEANPAEAKTVVNKAVSSAQARIAARKARELVRRKSATDIGGLPGKLADCRSTDPSKSELYVVEGDSAGGSAKSGRDSMFQAILPLRGKIINVEKARIDRVLKNTEVQSIITALGTGIHDEFDISKLRYHKIVLMADADVDGQHISTLLLTLLFRFMKPLVENGHIFLAQPPLYKLKWQRSEPEFAYSDRERDGLLEAGRAAGKKINVDDGIQRYKGLGEMDAKELWETTMDPSVRVLRQVTLDDAAAADELFSILMGEDVEARRSFITRNAKDVRFLDV

> <PDB ID(s) of Target Chain>
4BAE

> <UniProt (SwissProt) Recommended Name of Target Chain>
DNA gyrase subunit B

> <UniProt (SwissProt) Entry Name of Target Chain>
GYRB_MYCSM

> <UniProt (SwissProt) Primary ID of Target Chain>
P0C559

> <UniProt (SwissProt) Secondary ID(s) of Target Chain>
P48355,Q59555

> <UniProt (SwissProt) Alternative ID(s) of Target Chain>


> <UniProt (TrEMBL) Submitted Name of Target Chain>


> <UniProt (TrEMBL) Entry Name of Target Chain>


> <UniProt (TrEMBL) Primary ID of Target Chain>


> <UniProt (TrEMBL) Secondary ID(s) of Target Chain>


> <UniProt (TrEMBL) Alternative ID(s) of Target Chain>


$$$$

  Mrv0541 04241520572D          

 12 12  0  0  0  0            999 V2000
    3.2704    0.3438    0.0000 O   0  0  0  0  0  0  0  0  0  0  0  0
    2.5559    1.5813    0.0000 N   0  0  0  0  0  0  0  0  0  0  0  0
    1.1270    1.5813    0.0000 N   0  0  0  0  0  0  0  0  0  0  0  0
    3.9849    1.5813    0.0000 N   0  0  0  0  0  0  0  0  0  0  0  0
    1.8414    1.1687    0.0000 C   0  0  0  0  0  0  0  0  0  0  0  0
    3.2704    1.1687    0.0000 C   0  0  0  0  0  0  0  0  0  0  0  0
    1.8414    0.3437    0.0000 C   0  0  0  0  0  0  0  0  0  0  0  0
    0.4125    1.1687    0.0000 C   0  0  0  0  0  0  0  0  0  0  0  0
    1.1270   -0.0688    0.0000 C   0  0  0  0  0  0  0  0  0  0  0  0
    0.4125    0.3437    0.0000 C   0  0  0  0  0  0  0  0  0  0  0  0
    4.6993    1.1687    0.0000 C   0  0  0  0  0  0  0  0  0  0  0  0
    5.4138    1.5813    0.0000 C   0  0  0  0  0  0  0  0  0  0  0  0
  1  6  2  0  0  0  0
  2  5  1  0  0  0  0
  2  6  1  0  0  0  0
  3  5  4  0  0  0  0
  3  8  4  0  0  0  0
  4  6  1  0  0  0  0
  4 11  1  0  0  0  0
  5  7  4  0  0  0  0
  7  9  4  0  0  0  0
  8 10  4  0  0  0  0
  9 10  4  0  0  0  0
 11 12  1  0  0  0  0
M  END
> <From> 
www.bindingDB.org

> <BindingDB Reactant_set_id>
50083245

> <Ligand InChI>
InChI=1S/C8H11N3O/c1-2-9-8(12)11-7-5-3-4-6-10-7/h3-6H,2H2,1H3,(H2,9,10,11,12)

> <Ligand InChI Key>
IYRCTNBKKJBHRT-UHFFFAOYSA-N

> <BindingDB MonomerID>
50006454

> <BindingDB Ligand Name>
CHEMBL2007232

> <Target Name Assigned by Curator or DataSource>
DNA Gyrase Subunit B

> <Target Source Organism According to Curator or DataSource>
Staphylococcus aureus

> <Ki (nM)>


> <IC50 (nM)>
 32000

> <Kd (nM)>


> <EC50 (nM)>


> <kon (M-1-s-1)>


> <koff (s-1)>


> <pH>


> <Temp C>


> <Curation/DataSource>
ChEMBL

> <Article DOI>
10.1021/jm401208b

> <PMID>
24098982

> <PubChem AID>


> <Patent Number>


> <Authors>
Basarab, GS; Basarab, GS; Boriack-Sjodin, PA; Boriack-Sjodin, PA; Illingworth, R; Illingworth, R; Manchester, JI; Manchester, JI; Dangel, B; Dangel, B; Sriram, S; Sriram, S

> <Institution>
AstraZeneca R&amp;D Boston

> <Link to Ligand in BindingDB>
http://www.bindingdb.org/bind/chemsearch/marvin/MolStructure.jsp?monomerid=50006454

> <Link to Ligand-Target Pair in BindingDB>
http://www.bindingdb.org/jsp/dbsearch/PrimarySearch_ki.jsp?energyterm=kJ/mole&tag=pol&polymerid=2626&target=DNA+Gyrase+Subunit+B&column=ki&startPg=0&Increment=50&submit=Search

> <Link to Ligand-Target Pair in BindingDB>
http://www.bindingdb.org/jsp/dbsearch/PrimarySearch_ki.jsp?energyterm=kJ/mole&tag=r21&monomerid=50006454&enzyme=DNA+Gyrase+Subunit+B&column=ki&startPg=0&Increment=50&submit=Search

> <Ligand HET ID in PDB>


> <PDB ID(s) for Ligand-Target Complex>


> <PubChem CID>
376251

> <PubChem SID>
242057007

> <ChEBI ID of Ligand>


> <ChEMBL ID of Ligand>
CHEMBL2007232

> <DrugBank ID of Ligand>


> <IUPHAR_GRAC ID of Ligand>


> <KEGG ID of Ligand>


> <ZINC ID of Ligand>


> <Number of Protein Chains in Target (>1 implies a multichain complex)>
1

> <BindingDB Target Chain Sequence>
MVTALSDVNNTDNYGAGQIQVLEGLEAVRKRPGMYIGSTSERGLHHLVWEIVDNSIDEALAGYANQIEVVIEKDNWIKVTDNGRGIPVDIQEKMGRPAVEVILTVLHAGGKFGGGGYKVSGGLHGVGSSVVNALSQDLEVYVHRNETIYHQAYKKGVPQFDLKEVGTTDKTGTVIRFKADGEIFTETTVYNYETLQQRIRELAFLNKGIQITLRDERDEENVREDSYHYEGGIKSYVELLNENKEPIHDEPIYIHQSKDDIEVEIAIQYNSGYATNLLTYANNIHTYEGGTHEDGFKRALTRVLNSYGLSSKIMKEEKDRLSGEDTREGMTAIISIKHGDPQFEGQTKTKLGNSEVRQVVDKLFSEHFERFLYENPQVARTVVEKGIMAARARVAAKKAREVTRRKSALDVASLPGKLADCSSKSPEECEIFLVEGDSAGGSTKSGRDSRTQAILPLRGKILNVEKARLDRILNNNEIRQMITAFGTGIGGDFDLAKARYHKIVIMTDADVDGAHIRTLLLTFFYRFMRPLIEAGYVYIAQPPLYKLTQGKQKYYVYNDRELDKLKSELNPTPKWSIARYKGLGEMNADQLWETTMNPEHRALLQVKLEDAIEADQTFEMLMGDVVENRRQFIEDNAVYANLDF

> <PDB ID(s) of Target Chain>


> <UniProt (SwissProt) Recommended Name of Target Chain>
DNA gyrase subunit B

> <UniProt (SwissProt) Entry Name of Target Chain>
GYRB_STAAU

> <UniProt (SwissProt) Primary ID of Target Chain>
P0A0K8

> <UniProt (SwissProt) Secondary ID(s) of Target Chain>
P20832

> <UniProt (SwissProt) Alternative ID(s) of Target Chain>


> <UniProt (TrEMBL) Submitted Name of Target Chain>


> <UniProt (TrEMBL) Entry Name of Target Chain>


> <UniProt (TrEMBL) Primary ID of Target Chain>


> <UniProt (TrEMBL) Secondary ID(s) of Target Chain>


> <UniProt (TrEMBL) Alternative ID(s) of Target Chain>


$$$$

  Mrv0541 04171609262D          

 27 29  0  0  0  0            999 V2000
    0.7145   -0.4125    0.0000 C   0  0  0  0  0  0  0  0  0  0  0  0
    0.7145    0.4125    0.0000 C   0  0  0  0  0  0  0  0  0  0  0  0
    0.0000    0.8250    0.0000 C   0  0  0  0  0  0  0  0  0  0  0  0
   -0.7145    0.4125    0.0000 C   0  0  0  0  0  0  0  0  0  0  0  0
   -0.7145   -0.4125    0.0000 C   0  0  0  0  0  0  0  0  0  0  0  0
    0.0000   -0.8250    0.0000 C   0  0  0  0  0  0  0  0  0  0  0  0
   -1.4293   -0.8252    0.0000 C   0  0  0  0  0  0  0  0  0  0  0  0
   -2.1731   -0.4848    0.0000 S   0  0  0  0  0  0  0  0  0  0  0  0
   -2.7242   -1.0988    0.0000 C   0  0  0  0  0  0  0  0  0  0  0  0
   -2.3106   -1.8127    0.0000 C   0  0  0  0  0  0  0  0  0  0  0  0
   -1.5039   -1.6398    0.0000 C   0  0  0  0  0  0  0  0  0  0  0  0
   -2.6429   -2.5667    0.0000 C   0  0  0  0  0  0  0  0  0  0  0  0
   -2.2534   -3.0994    0.0000 O   0  0  0  0  0  0  0  0  0  0  0  0
   -3.2991   -2.6378    0.0000 N   0  0  0  0  0  0  0  0  0  0  0  0
   -3.5437   -1.0123    0.0000 N   0  0  0  0  0  0  0  0  0  0  0  0
   -3.8796   -0.2582    0.0000 C   0  0  0  0  0  0  0  0  0  0  0  0
   -4.7005   -0.1715    0.0000 N   0  0  0  0  0  0  0  0  0  0  0  0
   -3.4915    0.2757    0.0000 S   0  0  0  0  0  0  0  0  0  0  0  0
   -5.0363    0.5825    0.0000 C   0  0  0  0  0  0  0  0  0  0  0  0
   -5.8566    0.6703    0.0000 C   0  0  0  0  0  0  0  0  0  0  0  0
   -6.1908    1.4246    0.0000 C   0  0  0  0  0  0  0  0  0  0  0  0
   -5.7046    2.0912    0.0000 C   0  0  0  0  0  0  0  0  0  0  0  0
   -4.8843    2.0034    0.0000 C   0  0  0  0  0  0  0  0  0  0  0  0
   -4.5501    1.2491    0.0000 C   0  0  0  0  0  0  0  0  0  0  0  0
   -6.0374    2.8466    0.0000 N   0  3  0  0  0  0  0  0  0  0  0  0
   -5.6477    3.3793    0.0000 O   0  0  0  0  0  0  0  0  0  0  0  0
   -6.6935    2.9179    0.0000 O   0  5  0  0  0  0  0  0  0  0  0  0
  1  2  4  0  0  0  0
  2  3  4  0  0  0  0
  3  4  4  0  0  0  0
  4  5  4  0  0  0  0
  5  6  4  0  0  0  0
  6  1  4  0  0  0  0
  7  8  4  0  0  0  0
  8  9  4  0  0  0  0
  9 10  4  0  0  0  0
 10 11  4  0  0  0  0
 11  7  4  0  0  0  0
  5  7  1  0  0  0  0
 10 12  1  0  0  0  0
 12 13  2  0  0  0  0
 12 14  1  0  0  0  0
  9 15  1  0  0  0  0
 15 16  1  0  0  0  0
 16 17  1  0  0  0  0
 16 18  2  0  0  0  0
 17 19  1  0  0  0  0
 19 20  4  0  0  0  0
 20 21  4  0  0  0  0
 21 22  4  0  0  0  0
 22 23  4  0  0  0  0
 23 24  4  0  0  0  0
 24 19  4  0  0  0  0
 25 26  2  0  0  0  0
 25 27  1  0  0  0  0
 22 25  1  0  0  0  0
M  CHG  2  25   1  27  -1
M  END
> <From> 
www.bindingDB.org

> <BindingDB Reactant_set_id>
50302327

> <Ligand InChI>
InChI=1S/C18H14N4O3S2/c19-16(23)14-10-15(11-4-2-1-3-5-11)27-17(14)21-18(26)20-12-6-8-13(9-7-12)22(24)25/h1-10H,(H2,19,23)(H2,20,21,26)

> <Ligand InChI Key>
ZFLHPDLHBYLXTE-UHFFFAOYSA-N

> <BindingDB MonomerID>
50066094

> <BindingDB Ligand Name>
CHEMBL3402940

> <Target Name Assigned by Curator or DataSource>
DNA gyrase subunit B

> <Target Source Organism According to Curator or DataSource>


> <Ki (nM)>


> <IC50 (nM)>
 32480

> <Kd (nM)>


> <EC50 (nM)>


> <kon (M-1-s-1)>


> <koff (s-1)>


> <pH>


> <Temp C>
25.00

> <Curation/DataSource>
ChEMBL

> <Article DOI>
10.1016/j.bmc.2015.02.032

> <PMID>
25766629

> <PubChem AID>


> <Patent Number>


> <Authors>
Saxena, S; Samala, G; Renuka, J; Sridevi, JP; Yogeeswari, P; Sriram, D

> <Institution>
Birla Institute of Technology&amp; Science-Pilani

> <Link to Ligand in BindingDB>
http://www.bindingdb.org/bind/chemsearch/marvin/MolStructure.jsp?monomerid=50066094

> <Link to Ligand-Target Pair in BindingDB>
http://www.bindingdb.org/jsp/dbsearch/PrimarySearch_ki.jsp?energyterm=kJ/mole&tag=pol&polymerid=50006452&target=DNA+gyrase+subunit+B&column=ki&startPg=0&Increment=50&submit=Search

> <Link to Ligand-Target Pair in BindingDB>
http://www.bindingdb.org/jsp/dbsearch/PrimarySearch_ki.jsp?energyterm=kJ/mole&tag=r21&monomerid=50066094&enzyme=DNA+gyrase+subunit+B&column=ki&startPg=0&Increment=50&submit=Search

> <Ligand HET ID in PDB>


> <PDB ID(s) for Ligand-Target Complex>


> <PubChem CID>
118729465

> <PubChem SID>
313071618

> <ChEBI ID of Ligand>


> <ChEMBL ID of Ligand>


> <DrugBank ID of Ligand>


> <IUPHAR_GRAC ID of Ligand>


> <KEGG ID of Ligand>


> <ZINC ID of Ligand>


> <Number of Protein Chains in Target (>1 implies a multichain complex)>
1

> <BindingDB Target Chain Sequence>
MAAQKNNAPKEYGADSITILEGLEAVRKRPGMYIGSTGERGLHHLIWEVVDNAVDEAMAGFATRVDVKIHADGSVEVRDDGRGIPVEMHATGMPTIDVVMTQLHAGGKFDGETYAVSGGLHGVGVSVVNALSTRLEATVLRDGYEWFQYYDRSVPGKLKQGGETKETGTTIRFWADPEIFETTDYNFETVARRLQEMAFLNKGLTIELTDERVTAEEVVDDVVKDTAEAPKTADEKAAEATGPSKVKHRVFHYPGGLVDYVKHINRTKTPIQQSIIDFDGKGPGHEVEIAMQWNAGYSESVHTFANTINTHEGGTHEEGFRAALTSVVNRYAKDKKLLKDKDPNLTGDDIREGLAAVISVKVAEPQFEGQTKTKLGNTEVKSFVQKICNEQLQHWFEANPAEAKTVVNKAVSSAQARIAARKARELVRRKSATDIGGLPGKLADCRSTDPSKSELYVVEGDSAGGSAKSGRDSMFQAILPLRGKIINVEKARIDRVLKNTEVQSIITALGTGIHDEFDISKLRYHKIVLMADADVDGQHISTLLLTLLFRFMKPLVENGHIFLAQPPLYKLKWQRSEPEFAYSDRERDGLLEAGRAAGKKINVDDGIQRYKGLGEMDAKELWETTMDPSVRVLRQVTLDDAAAADELFSILMGEDVEARRSFITRNAKDVRFLDV

> <PDB ID(s) of Target Chain>
4BAE

> <UniProt (SwissProt) Recommended Name of Target Chain>
DNA gyrase subunit B

> <UniProt (SwissProt) Entry Name of Target Chain>
GYRB_MYCSM

> <UniProt (SwissProt) Primary ID of Target Chain>
P0C559

> <UniProt (SwissProt) Secondary ID(s) of Target Chain>
P48355,Q59555

> <UniProt (SwissProt) Alternative ID(s) of Target Chain>


> <UniProt (TrEMBL) Submitted Name of Target Chain>


> <UniProt (TrEMBL) Entry Name of Target Chain>


> <UniProt (TrEMBL) Primary ID of Target Chain>


> <UniProt (TrEMBL) Secondary ID(s) of Target Chain>


> <UniProt (TrEMBL) Alternative ID(s) of Target Chain>


$$$$

  Mrv0541 04171609262D          

 33 36  0  0  0  0            999 V2000
   -1.4361    0.4117    0.0000 C   0  0  0  0  0  0  0  0  0  0  0  0
   -1.4361   -0.4117    0.0000 C   0  0  0  0  0  0  0  0  0  0  0  0
   -0.7130   -0.8235    0.0000 C   0  0  0  0  0  0  0  0  0  0  0  0
   -0.7130    0.8235    0.0000 C   0  0  0  0  0  0  0  0  0  0  0  0
    0.0000    0.4117    0.0000 C   0  0  0  0  0  0  0  0  0  0  0  0
    0.0000   -0.4117    0.0000 C   0  0  0  0  0  0  0  0  0  0  0  0
    0.7130   -0.8235    0.0000 N   0  0  0  0  0  0  0  0  0  0  0  0
    1.4261   -0.4117    0.0000 C   0  0  0  0  0  0  0  0  0  0  0  0
    1.4261    0.4117    0.0000 C   0  0  0  0  0  0  0  0  0  0  0  0
    0.7130    0.8235    0.0000 C   0  0  0  0  0  0  0  0  0  0  0  0
    0.7130    1.6489    0.0000 N   0  0  0  0  0  0  0  0  0  0  0  0
   -0.0008    2.0627    0.0000 C   0  0  0  0  0  0  0  0  0  0  0  0
    0.0006    2.8877    0.0000 C   0  0  0  0  0  0  0  0  0  0  0  0
    0.7158    3.2990    0.0000 C   0  0  0  0  0  0  0  0  0  0  0  0
    1.4296    2.8853    0.0000 C   0  0  0  0  0  0  0  0  0  0  0  0
    1.4282    2.0603    0.0000 C   0  0  0  0  0  0  0  0  0  0  0  0
    0.7188    4.1245    0.0000 N   0  0  0  0  0  0  0  0  0  0  0  0
    1.4350    4.5350    0.0000 C   0  0  0  0  0  0  0  0  0  0  0  0
    2.0054    4.2031    0.0000 S   0  0  0  0  0  0  0  0  0  0  0  0
    1.4380    5.3604    0.0000 N   0  0  0  0  0  0  0  0  0  0  0  0
    2.1541    5.7709    0.0000 C   0  0  0  0  0  0  0  0  0  0  0  0
    2.1584    6.5960    0.0000 C   0  0  0  0  0  0  0  0  0  0  0  0
    2.8750    7.0048    0.0000 C   0  0  0  0  0  0  0  0  0  0  0  0
    3.5873    6.5887    0.0000 C   0  0  0  0  0  0  0  0  0  0  0  0
    3.5831    5.7637    0.0000 C   0  0  0  0  0  0  0  0  0  0  0  0
    2.8666    5.3548    0.0000 C   0  0  0  0  0  0  0  0  0  0  0  0
    1.9977   -0.7417    0.0000 C   0  0  0  0  0  0  0  0  0  0  0  0
   -2.1508    0.8246    0.0000 C   0  0  0  0  0  0  0  0  0  0  0  0
   -2.7227    0.4950    0.0000 F   0  0  0  0  0  0  0  0  0  0  0  0
   -2.1506    1.4846    0.0000 F   0  0  0  0  0  0  0  0  0  0  0  0
   -2.7222    1.1549    0.0000 F   0  0  0  0  0  0  0  0  0  0  0  0
    4.3051    6.9962    0.0000 O   0  0  0  0  0  0  0  0  0  0  0  0
    4.8746    6.6626    0.0000 C   0  0  0  0  0  0  0  0  0  0  0  0
  1  2  4  0  0  0  0
  2  3  4  0  0  0  0
  3  6  4  0  0  0  0
  5  4  4  0  0  0  0
  4  1  4  0  0  0  0
  5  6  4  0  0  0  0
  6  7  4  0  0  0  0
  7  8  4  0  0  0  0
  8  9  4  0  0  0  0
  9 10  4  0  0  0  0
 10  5  4  0  0  0  0
 11 12  1  0  0  0  0
 11 16  1  0  0  0  0
 12 13  1  0  0  0  0
 13 14  1  0  0  0  0
 14 15  1  0  0  0  0
 15 16  1  0  0  0  0
 10 11  1  0  0  0  0
 14 17  1  0  0  0  0
 17 18  1  0  0  0  0
 18 19  2  0  0  0  0
 18 20  1  0  0  0  0
 20 21  1  0  0  0  0
 21 22  4  0  0  0  0
 22 23  4  0  0  0  0
 23 24  4  0  0  0  0
 24 25  4  0  0  0  0
 25 26  4  0  0  0  0
 26 21  4  0  0  0  0
  8 27  1  0  0  0  0
  1 28  1  0  0  0  0
 28 29  1  0  0  0  0
 28 30  1  0  0  0  0
 28 31  1  0  0  0  0
 24 32  1  0  0  0  0
 32 33  1  0  0  0  0
M  END
> <From> 
www.bindingDB.org

> <BindingDB Reactant_set_id>
50303821

> <Ligand InChI>
InChI=1S/C24H25F3N4OS/c1-15-13-22(20-14-16(24(25,26)27)3-8-21(20)28-15)31-11-9-18(10-12-31)30-23(33)29-17-4-6-19(32-2)7-5-17/h3-8,13-14,18H,9-12H2,1-2H3,(H2,29,30,33)

> <Ligand InChI Key>
CQGQDBFPAIEUGG-UHFFFAOYSA-N

> <BindingDB MonomerID>
50067168

> <BindingDB Ligand Name>
CHEMBL3403288

> <Target Name Assigned by Curator or DataSource>
DNA gyrase subunit B

> <Target Source Organism According to Curator or DataSource>


> <Ki (nM)>


> <IC50 (nM)>
 32560

> <Kd (nM)>


> <EC50 (nM)>


> <kon (M-1-s-1)>


> <koff (s-1)>


> <pH>


> <Temp C>


> <Curation/DataSource>
ChEMBL

> <Article DOI>
10.1016/j.bmc.2015.03.004

> <PMID>
25801151

> <PubChem AID>


> <Patent Number>


> <Authors>
Medapi, B; Renuka, J; Saxena, S; Sridevi, JP; Medishetti, R; Kulkarni, P; Yogeeswari, P; Sriram, D

> <Institution>
Birla Institute of Technology&amp; Science-Pilani

> <Link to Ligand in BindingDB>
http://www.bindingdb.org/bind/chemsearch/marvin/MolStructure.jsp?monomerid=50067168

> <Link to Ligand-Target Pair in BindingDB>
http://www.bindingdb.org/jsp/dbsearch/PrimarySearch_ki.jsp?energyterm=kJ/mole&tag=pol&polymerid=50006452&target=DNA+gyrase+subunit+B&column=ki&startPg=0&Increment=50&submit=Search

> <Link to Ligand-Target Pair in BindingDB>
http://www.bindingdb.org/jsp/dbsearch/PrimarySearch_ki.jsp?energyterm=kJ/mole&tag=r21&monomerid=50067168&enzyme=DNA+gyrase+subunit+B&column=ki&startPg=0&Increment=50&submit=Search

> <Ligand HET ID in PDB>


> <PDB ID(s) for Ligand-Target Complex>


> <PubChem CID>
118729705

> <PubChem SID>
313071797

> <ChEBI ID of Ligand>


> <ChEMBL ID of Ligand>


> <DrugBank ID of Ligand>


> <IUPHAR_GRAC ID of Ligand>


> <KEGG ID of Ligand>


> <ZINC ID of Ligand>


> <Number of Protein Chains in Target (>1 implies a multichain complex)>
1

> <BindingDB Target Chain Sequence>
MAAQKNNAPKEYGADSITILEGLEAVRKRPGMYIGSTGERGLHHLIWEVVDNAVDEAMAGFATRVDVKIHADGSVEVRDDGRGIPVEMHATGMPTIDVVMTQLHAGGKFDGETYAVSGGLHGVGVSVVNALSTRLEATVLRDGYEWFQYYDRSVPGKLKQGGETKETGTTIRFWADPEIFETTDYNFETVARRLQEMAFLNKGLTIELTDERVTAEEVVDDVVKDTAEAPKTADEKAAEATGPSKVKHRVFHYPGGLVDYVKHINRTKTPIQQSIIDFDGKGPGHEVEIAMQWNAGYSESVHTFANTINTHEGGTHEEGFRAALTSVVNRYAKDKKLLKDKDPNLTGDDIREGLAAVISVKVAEPQFEGQTKTKLGNTEVKSFVQKICNEQLQHWFEANPAEAKTVVNKAVSSAQARIAARKARELVRRKSATDIGGLPGKLADCRSTDPSKSELYVVEGDSAGGSAKSGRDSMFQAILPLRGKIINVEKARIDRVLKNTEVQSIITALGTGIHDEFDISKLRYHKIVLMADADVDGQHISTLLLTLLFRFMKPLVENGHIFLAQPPLYKLKWQRSEPEFAYSDRERDGLLEAGRAAGKKINVDDGIQRYKGLGEMDAKELWETTMDPSVRVLRQVTLDDAAAADELFSILMGEDVEARRSFITRNAKDVRFLDV

> <PDB ID(s) of Target Chain>
4BAE

> <UniProt (SwissProt) Recommended Name of Target Chain>
DNA gyrase subunit B

> <UniProt (SwissProt) Entry Name of Target Chain>
GYRB_MYCSM

> <UniProt (SwissProt) Primary ID of Target Chain>
P0C559

> <UniProt (SwissProt) Secondary ID(s) of Target Chain>
P48355,Q59555

> <UniProt (SwissProt) Alternative ID(s) of Target Chain>


> <UniProt (TrEMBL) Submitted Name of Target Chain>


> <UniProt (TrEMBL) Entry Name of Target Chain>


> <UniProt (TrEMBL) Primary ID of Target Chain>


> <UniProt (TrEMBL) Secondary ID(s) of Target Chain>


> <UniProt (TrEMBL) Alternative ID(s) of Target Chain>


$$$$

  SciTegic12231720252D

 27 31  0  0  0  0            999 V2000
   11.7825  -13.4865    0.0000 N   0  0
   12.4924  -13.0793    0.0000 C   0  0
   12.4898  -12.2621    0.0000 C   0  0
   11.7857  -11.8522    0.0000 C   0  0
   11.0758  -12.2594    0.0000 C   0  0
   10.3675  -11.8494    0.0000 C   0  0
    9.6617  -12.2566    0.0000 C   0  0
    9.6602  -13.0738    0.0000 C   0  0
   10.3643  -13.4838    0.0000 C   0  0
   11.0742  -13.0766    0.0000 C   0  0
    8.9503  -13.4810    0.0000 Cl  0  0
   11.7873  -11.0350    0.0000 N   0  0
   12.4930  -10.6277    0.0000 C   0  0
   12.4946   -9.8106    0.0000 C   0  0
   11.7863   -9.4006    0.0000 N   0  0
   11.0806   -9.8078    0.0000 C   0  0
   11.0790  -10.6250    0.0000 C   0  0
   11.7879   -8.5834    0.0000 C   0  0
   12.4978   -8.1720    0.0000 C   0  0
   12.5834   -7.3618    0.0000 N   0  0
   13.3821   -7.1926    0.0000 C   0  0
   13.7893   -7.9025    0.0000 C   0  0
   13.2403   -8.5079    0.0000 N   0  0
   14.6065   -7.9000    0.0000 C   0  0
   15.0165   -7.1958    0.0000 C   0  0
   14.6093   -6.4859    0.0000 C   0  0
   13.7921   -6.4843    0.0000 C   0  0
  1  2  2  0
  2  3  1  0
  3  4  2  0
  4  5  1  0
  5  6  2  0
  6  7  1  0
  7  8  2  0
  8  9  1  0
  9 10  2  0
  1 10  1  0
  5 10  1  0
  8 11  1  0
 12 13  1  0
 13 14  1  0
 14 15  1  0
 15 16  1  0
 16 17  1  0
 12 17  1  0
 19 20  1  0
 20 21  1  0
 21 22  1  0
 22 23  1  0
 19 23  2  0
 24 25  1  0
 25 26  2  0
 26 27  1  0
 21 27  2  0
 22 24  2  0
 18 19  1  0
 15 18  1  0
  4 12  1  0
M  END
> <From> 
www.bindingDB.org

> <BindingDB Reactant_set_id>
50528064

> <Ligand InChI>
InChI=1S/C21H20ClN5/c22-15-5-6-16-19(13-15)23-8-7-20(16)27-11-9-26(10-12-27)14-21-24-17-3-1-2-4-18(17)25-21/h1-8,13H,9-12,14H2,(H,24,25)

> <Ligand InChI Key>
UGOITXQNEUXWME-UHFFFAOYSA-N

> <BindingDB MonomerID>
50202019

> <BindingDB Ligand Name>
CHEMBL3966158

> <Target Name Assigned by Curator or DataSource>
DNA gyrase subunit B

> <Target Source Organism According to Curator or DataSource>


> <Ki (nM)>


> <IC50 (nM)>
 32600

> <Kd (nM)>


> <EC50 (nM)>


> <kon (M-1-s-1)>


> <koff (s-1)>


> <pH>


> <Temp C>


> <Curation/DataSource>
ChEMBL

> <Article DOI>
10.1016/j.ejmech.2016.06.042

> <PMID>
27371925

> <PubChem AID>


> <Patent Number>


> <Authors>
Jeankumar, VU; Reshma, RS; Vats, R; Janupally, R; Saxena, S; Yogeeswari, P; Sriram, D

> <Institution>
Birla Institute of Technology&amp; Science-Pilani

> <Link to Ligand in BindingDB>
http://www.bindingdb.org/bind/chemsearch/marvin/MolStructure.jsp?monomerid=50202019

> <Link to Ligand-Target Pair in BindingDB>
http://www.bindingdb.org/jsp/dbsearch/PrimarySearch_ki.jsp?energyterm=kJ/mole&tag=pol&polymerid=50006452&target=DNA+gyrase+subunit+B&column=ki&startPg=0&Increment=50&submit=Search

> <Link to Ligand-Target Pair in BindingDB>
http://www.bindingdb.org/jsp/dbsearch/PrimarySearch_ki.jsp?energyterm=kJ/mole&tag=r21&monomerid=50202019&enzyme=DNA+gyrase+subunit+B&column=ki&startPg=0&Increment=50&submit=Search

> <Ligand HET ID in PDB>


> <PDB ID(s) for Ligand-Target Complex>


> <PubChem CID>
134150385

> <PubChem SID>
375979578

> <ChEBI ID of Ligand>


> <ChEMBL ID of Ligand>


> <DrugBank ID of Ligand>


> <IUPHAR_GRAC ID of Ligand>


> <KEGG ID of Ligand>


> <ZINC ID of Ligand>


> <Number of Protein Chains in Target (>1 implies a multichain complex)>
1

> <BindingDB Target Chain Sequence>
MAAQKNNAPKEYGADSITILEGLEAVRKRPGMYIGSTGERGLHHLIWEVVDNAVDEAMAGFATRVDVKIHADGSVEVRDDGRGIPVEMHATGMPTIDVVMTQLHAGGKFDGETYAVSGGLHGVGVSVVNALSTRLEATVLRDGYEWFQYYDRSVPGKLKQGGETKETGTTIRFWADPEIFETTDYNFETVARRLQEMAFLNKGLTIELTDERVTAEEVVDDVVKDTAEAPKTADEKAAEATGPSKVKHRVFHYPGGLVDYVKHINRTKTPIQQSIIDFDGKGPGHEVEIAMQWNAGYSESVHTFANTINTHEGGTHEEGFRAALTSVVNRYAKDKKLLKDKDPNLTGDDIREGLAAVISVKVAEPQFEGQTKTKLGNTEVKSFVQKICNEQLQHWFEANPAEAKTVVNKAVSSAQARIAARKARELVRRKSATDIGGLPGKLADCRSTDPSKSELYVVEGDSAGGSAKSGRDSMFQAILPLRGKIINVEKARIDRVLKNTEVQSIITALGTGIHDEFDISKLRYHKIVLMADADVDGQHISTLLLTLLFRFMKPLVENGHIFLAQPPLYKLKWQRSEPEFAYSDRERDGLLEAGRAAGKKINVDDGIQRYKGLGEMDAKELWETTMDPSVRVLRQVTLDDAAAADELFSILMGEDVEARRSFITRNAKDVRFLDV

> <PDB ID(s) of Target Chain>
4BAE

> <UniProt (SwissProt) Recommended Name of Target Chain>
DNA gyrase subunit B

> <UniProt (SwissProt) Entry Name of Target Chain>
GYRB_MYCSM

> <UniProt (SwissProt) Primary ID of Target Chain>
P0C559

> <UniProt (SwissProt) Secondary ID(s) of Target Chain>
P48355,Q59555

> <UniProt (SwissProt) Alternative ID(s) of Target Chain>


> <UniProt (TrEMBL) Submitted Name of Target Chain>


> <UniProt (TrEMBL) Entry Name of Target Chain>


> <UniProt (TrEMBL) Primary ID of Target Chain>


> <UniProt (TrEMBL) Secondary ID(s) of Target Chain>


> <UniProt (TrEMBL) Alternative ID(s) of Target Chain>


$$$$

  SciTegic12221712112D

 27 30  0  0  0  0            999 V2000
    8.2324   -5.3629    0.0000 C   0  0
    7.5207   -5.7825    0.0000 C   0  0
    8.2284   -4.5379    0.0000 O   0  0
    8.9482   -5.7724    0.0000 N   0  0
    9.6599   -5.3528    0.0000 C   0  0
    7.5249   -6.6075    0.0000 N   0  0
    6.8131   -7.0229    0.0000 C   0  0
    6.8172   -7.8479    0.0000 C   0  0
    7.5371   -8.2574    0.0000 N   0  0
    8.2488   -7.8378    0.0000 C   0  0
    8.2447   -7.0128    0.0000 C   0  0
    7.5535  -10.7322    0.0000 N   0  0
    8.2652  -10.3127    0.0000 C   0  0
    8.2611   -9.4877    0.0000 C   0  0
    7.5412   -9.0824    0.0000 C   0  0
    6.8295   -9.4978    0.0000 C   0  0
    6.1137   -9.0883    0.0000 C   0  0
    5.4020   -9.5079    0.0000 C   0  0
    5.4060  -10.3329    0.0000 C   0  0
    6.1218  -10.7382    0.0000 C   0  0
    6.8335  -10.3228    0.0000 C   0  0
    4.6943  -10.7483    0.0000 Cl  0  0
   10.3781   -5.7588    0.0000 C   0  0
   11.0888   -5.3399    0.0000 C   0  0
   11.0813   -4.5149    0.0000 C   0  0
   10.3632   -4.1089    0.0000 C   0  0
    9.6524   -4.5279    0.0000 C   0  0
  1  2  1  0
  1  3  2  0
  1  4  1  0
  4  5  1  0
  6  7  1  0
  7  8  1  0
  8  9  1  0
  9 10  1  0
 10 11  1  0
  6 11  1  0
 12 13  2  0
 13 14  1  0
 14 15  2  0
 15 16  1  0
 16 17  2  0
 17 18  1  0
 18 19  2  0
 19 20  1  0
 20 21  2  0
 12 21  1  0
 16 21  1  0
 19 22  1  0
  9 15  1  0
  2  6  1  0
  5 23  1  0
  5 27  2  0
 23 24  2  0
 24 25  1  0
 25 26  2  0
 26 27  1  0
M  END
> <From> 
www.bindingDB.org

> <BindingDB Reactant_set_id>
50528053

> <Ligand InChI>
InChI=1S/C21H21ClN4O/c22-16-6-7-18-19(14-16)23-9-8-20(18)26-12-10-25(11-13-26)15-21(27)24-17-4-2-1-3-5-17/h1-9,14H,10-13,15H2,(H,24,27)

> <Ligand InChI Key>
OQZYAILQXDXHLO-UHFFFAOYSA-N

> <BindingDB MonomerID>
50202008

> <BindingDB Ligand Name>
CHEMBL3956599

> <Target Name Assigned by Curator or DataSource>
DNA gyrase subunit B

> <Target Source Organism According to Curator or DataSource>


> <Ki (nM)>


> <IC50 (nM)>
 33100

> <Kd (nM)>


> <EC50 (nM)>


> <kon (M-1-s-1)>


> <koff (s-1)>


> <pH>


> <Temp C>


> <Curation/DataSource>
ChEMBL

> <Article DOI>
10.1016/j.ejmech.2016.06.042

> <PMID>
27371925

> <PubChem AID>


> <Patent Number>


> <Authors>
Jeankumar, VU; Reshma, RS; Vats, R; Janupally, R; Saxena, S; Yogeeswari, P; Sriram, D

> <Institution>
Birla Institute of Technology&amp; Science-Pilani

> <Link to Ligand in BindingDB>
http://www.bindingdb.org/bind/chemsearch/marvin/MolStructure.jsp?monomerid=50202008

> <Link to Ligand-Target Pair in BindingDB>
http://www.bindingdb.org/jsp/dbsearch/PrimarySearch_ki.jsp?energyterm=kJ/mole&tag=pol&polymerid=50006452&target=DNA+gyrase+subunit+B&column=ki&startPg=0&Increment=50&submit=Search

> <Link to Ligand-Target Pair in BindingDB>
http://www.bindingdb.org/jsp/dbsearch/PrimarySearch_ki.jsp?energyterm=kJ/mole&tag=r21&monomerid=50202008&enzyme=DNA+gyrase+subunit+B&column=ki&startPg=0&Increment=50&submit=Search

> <Ligand HET ID in PDB>


> <PDB ID(s) for Ligand-Target Complex>


> <PubChem CID>
31257699

> <PubChem SID>
375979567

> <ChEBI ID of Ligand>


> <ChEMBL ID of Ligand>


> <DrugBank ID of Ligand>


> <IUPHAR_GRAC ID of Ligand>


> <KEGG ID of Ligand>


> <ZINC ID of Ligand>


> <Number of Protein Chains in Target (>1 implies a multichain complex)>
1

> <BindingDB Target Chain Sequence>
MAAQKNNAPKEYGADSITILEGLEAVRKRPGMYIGSTGERGLHHLIWEVVDNAVDEAMAGFATRVDVKIHADGSVEVRDDGRGIPVEMHATGMPTIDVVMTQLHAGGKFDGETYAVSGGLHGVGVSVVNALSTRLEATVLRDGYEWFQYYDRSVPGKLKQGGETKETGTTIRFWADPEIFETTDYNFETVARRLQEMAFLNKGLTIELTDERVTAEEVVDDVVKDTAEAPKTADEKAAEATGPSKVKHRVFHYPGGLVDYVKHINRTKTPIQQSIIDFDGKGPGHEVEIAMQWNAGYSESVHTFANTINTHEGGTHEEGFRAALTSVVNRYAKDKKLLKDKDPNLTGDDIREGLAAVISVKVAEPQFEGQTKTKLGNTEVKSFVQKICNEQLQHWFEANPAEAKTVVNKAVSSAQARIAARKARELVRRKSATDIGGLPGKLADCRSTDPSKSELYVVEGDSAGGSAKSGRDSMFQAILPLRGKIINVEKARIDRVLKNTEVQSIITALGTGIHDEFDISKLRYHKIVLMADADVDGQHISTLLLTLLFRFMKPLVENGHIFLAQPPLYKLKWQRSEPEFAYSDRERDGLLEAGRAAGKKINVDDGIQRYKGLGEMDAKELWETTMDPSVRVLRQVTLDDAAAADELFSILMGEDVEARRSFITRNAKDVRFLDV

> <PDB ID(s) of Target Chain>
4BAE

> <UniProt (SwissProt) Recommended Name of Target Chain>
DNA gyrase subunit B

> <UniProt (SwissProt) Entry Name of Target Chain>
GYRB_MYCSM

> <UniProt (SwissProt) Primary ID of Target Chain>
P0C559

> <UniProt (SwissProt) Secondary ID(s) of Target Chain>
P48355,Q59555

> <UniProt (SwissProt) Alternative ID(s) of Target Chain>


> <UniProt (TrEMBL) Submitted Name of Target Chain>


> <UniProt (TrEMBL) Entry Name of Target Chain>


> <UniProt (TrEMBL) Primary ID of Target Chain>


> <UniProt (TrEMBL) Secondary ID(s) of Target Chain>


> <UniProt (TrEMBL) Alternative ID(s) of Target Chain>


$$$$

  Mrv0541 04171609262D          

 32 35  0  0  0  0            999 V2000
   -1.4361    0.4117    0.0000 C   0  0  0  0  0  0  0  0  0  0  0  0
   -1.4361   -0.4117    0.0000 C   0  0  0  0  0  0  0  0  0  0  0  0
   -0.7130   -0.8235    0.0000 C   0  0  0  0  0  0  0  0  0  0  0  0
   -0.7130    0.8235    0.0000 C   0  0  0  0  0  0  0  0  0  0  0  0
    0.0000    0.4117    0.0000 C   0  0  0  0  0  0  0  0  0  0  0  0
    0.0000   -0.4117    0.0000 C   0  0  0  0  0  0  0  0  0  0  0  0
    0.7130   -0.8235    0.0000 N   0  0  0  0  0  0  0  0  0  0  0  0
    1.4261   -0.4117    0.0000 C   0  0  0  0  0  0  0  0  0  0  0  0
    1.4261    0.4117    0.0000 C   0  0  0  0  0  0  0  0  0  0  0  0
    0.7130    0.8235    0.0000 C   0  0  0  0  0  0  0  0  0  0  0  0
    0.7130    1.6489    0.0000 N   0  0  0  0  0  0  0  0  0  0  0  0
   -0.0008    2.0627    0.0000 C   0  0  0  0  0  0  0  0  0  0  0  0
    0.0006    2.8877    0.0000 C   0  0  0  0  0  0  0  0  0  0  0  0
    0.7158    3.2990    0.0000 C   0  0  0  0  0  0  0  0  0  0  0  0
    1.4296    2.8853    0.0000 C   0  0  0  0  0  0  0  0  0  0  0  0
    1.4282    2.0603    0.0000 C   0  0  0  0  0  0  0  0  0  0  0  0
    0.7188    4.1245    0.0000 N   0  0  0  0  0  0  0  0  0  0  0  0
    1.4350    4.5350    0.0000 C   0  0  0  0  0  0  0  0  0  0  0  0
    2.0054    4.2031    0.0000 O   0  0  0  0  0  0  0  0  0  0  0  0
    1.4380    5.3604    0.0000 N   0  0  0  0  0  0  0  0  0  0  0  0
    2.1541    5.7709    0.0000 C   0  0  0  0  0  0  0  0  0  0  0  0
    2.1584    6.5960    0.0000 C   0  0  0  0  0  0  0  0  0  0  0  0
    2.8750    7.0048    0.0000 C   0  0  0  0  0  0  0  0  0  0  0  0
    3.5873    6.5887    0.0000 C   0  0  0  0  0  0  0  0  0  0  0  0
    3.5831    5.7637    0.0000 C   0  0  0  0  0  0  0  0  0  0  0  0
    2.8666    5.3548    0.0000 C   0  0  0  0  0  0  0  0  0  0  0  0
    1.9977   -0.7417    0.0000 C   0  0  0  0  0  0  0  0  0  0  0  0
   -2.1508    0.8246    0.0000 C   0  0  0  0  0  0  0  0  0  0  0  0
   -2.7227    0.4950    0.0000 F   0  0  0  0  0  0  0  0  0  0  0  0
   -2.1506    1.4846    0.0000 F   0  0  0  0  0  0  0  0  0  0  0  0
   -2.7222    1.1549    0.0000 F   0  0  0  0  0  0  0  0  0  0  0  0
    4.1606    6.9157    0.0000 Cl  0  0  0  0  0  0  0  0  0  0  0  0
  1  2  4  0  0  0  0
  2  3  4  0  0  0  0
  3  6  4  0  0  0  0
  5  4  4  0  0  0  0
  4  1  4  0  0  0  0
  5  6  4  0  0  0  0
  6  7  4  0  0  0  0
  7  8  4  0  0  0  0
  8  9  4  0  0  0  0
  9 10  4  0  0  0  0
 10  5  4  0  0  0  0
 11 12  1  0  0  0  0
 11 16  1  0  0  0  0
 12 13  1  0  0  0  0
 13 14  1  0  0  0  0
 14 15  1  0  0  0  0
 15 16  1  0  0  0  0
 10 11  1  0  0  0  0
 14 17  1  0  0  0  0
 17 18  1  0  0  0  0
 18 19  2  0  0  0  0
 18 20  1  0  0  0  0
 20 21  1  0  0  0  0
 21 22  4  0  0  0  0
 22 23  4  0  0  0  0
 23 24  4  0  0  0  0
 24 25  4  0  0  0  0
 25 26  4  0  0  0  0
 26 21  4  0  0  0  0
  8 27  1  0  0  0  0
  1 28  1  0  0  0  0
 28 29  1  0  0  0  0
 28 30  1  0  0  0  0
 28 31  1  0  0  0  0
 24 32  1  0  0  0  0
M  END
> <From> 
www.bindingDB.org

> <BindingDB Reactant_set_id>
50303847

> <Ligand InChI>
InChI=1S/C23H22ClF3N4O/c1-14-12-21(19-13-15(23(25,26)27)2-7-20(19)28-14)31-10-8-18(9-11-31)30-22(32)29-17-5-3-16(24)4-6-17/h2-7,12-13,18H,8-11H2,1H3,(H2,29,30,32)

> <Ligand InChI Key>
FVPAKJUWDPECNZ-UHFFFAOYSA-N

> <BindingDB MonomerID>
50067141

> <BindingDB Ligand Name>
CHEMBL3403262

> <Target Name Assigned by Curator or DataSource>
DNA gyrase subunit B

> <Target Source Organism According to Curator or DataSource>


> <Ki (nM)>


> <IC50 (nM)>
 33980

> <Kd (nM)>


> <EC50 (nM)>


> <kon (M-1-s-1)>


> <koff (s-1)>


> <pH>


> <Temp C>


> <Curation/DataSource>
ChEMBL

> <Article DOI>
10.1016/j.bmc.2015.03.004

> <PMID>
25801151

> <PubChem AID>


> <Patent Number>


> <Authors>
Medapi, B; Renuka, J; Saxena, S; Sridevi, JP; Medishetti, R; Kulkarni, P; Yogeeswari, P; Sriram, D

> <Institution>
Birla Institute of Technology&amp; Science-Pilani

> <Link to Ligand in BindingDB>
http://www.bindingdb.org/bind/chemsearch/marvin/MolStructure.jsp?monomerid=50067141

> <Link to Ligand-Target Pair in BindingDB>
http://www.bindingdb.org/jsp/dbsearch/PrimarySearch_ki.jsp?energyterm=kJ/mole&tag=pol&polymerid=50006452&target=DNA+gyrase+subunit+B&column=ki&startPg=0&Increment=50&submit=Search

> <Link to Ligand-Target Pair in BindingDB>
http://www.bindingdb.org/jsp/dbsearch/PrimarySearch_ki.jsp?energyterm=kJ/mole&tag=r21&monomerid=50067141&enzyme=DNA+gyrase+subunit+B&column=ki&startPg=0&Increment=50&submit=Search

> <Ligand HET ID in PDB>


> <PDB ID(s) for Ligand-Target Complex>


> <PubChem CID>
118729678

> <PubChem SID>
313071772

> <ChEBI ID of Ligand>


> <ChEMBL ID of Ligand>


> <DrugBank ID of Ligand>


> <IUPHAR_GRAC ID of Ligand>


> <KEGG ID of Ligand>


> <ZINC ID of Ligand>


> <Number of Protein Chains in Target (>1 implies a multichain complex)>
1

> <BindingDB Target Chain Sequence>
MAAQKNNAPKEYGADSITILEGLEAVRKRPGMYIGSTGERGLHHLIWEVVDNAVDEAMAGFATRVDVKIHADGSVEVRDDGRGIPVEMHATGMPTIDVVMTQLHAGGKFDGETYAVSGGLHGVGVSVVNALSTRLEATVLRDGYEWFQYYDRSVPGKLKQGGETKETGTTIRFWADPEIFETTDYNFETVARRLQEMAFLNKGLTIELTDERVTAEEVVDDVVKDTAEAPKTADEKAAEATGPSKVKHRVFHYPGGLVDYVKHINRTKTPIQQSIIDFDGKGPGHEVEIAMQWNAGYSESVHTFANTINTHEGGTHEEGFRAALTSVVNRYAKDKKLLKDKDPNLTGDDIREGLAAVISVKVAEPQFEGQTKTKLGNTEVKSFVQKICNEQLQHWFEANPAEAKTVVNKAVSSAQARIAARKARELVRRKSATDIGGLPGKLADCRSTDPSKSELYVVEGDSAGGSAKSGRDSMFQAILPLRGKIINVEKARIDRVLKNTEVQSIITALGTGIHDEFDISKLRYHKIVLMADADVDGQHISTLLLTLLFRFMKPLVENGHIFLAQPPLYKLKWQRSEPEFAYSDRERDGLLEAGRAAGKKINVDDGIQRYKGLGEMDAKELWETTMDPSVRVLRQVTLDDAAAADELFSILMGEDVEARRSFITRNAKDVRFLDV

> <PDB ID(s) of Target Chain>
4BAE

> <UniProt (SwissProt) Recommended Name of Target Chain>
DNA gyrase subunit B

> <UniProt (SwissProt) Entry Name of Target Chain>
GYRB_MYCSM

> <UniProt (SwissProt) Primary ID of Target Chain>
P0C559

> <UniProt (SwissProt) Secondary ID(s) of Target Chain>
P48355,Q59555

> <UniProt (SwissProt) Alternative ID(s) of Target Chain>


> <UniProt (TrEMBL) Submitted Name of Target Chain>


> <UniProt (TrEMBL) Entry Name of Target Chain>


> <UniProt (TrEMBL) Primary ID of Target Chain>


> <UniProt (TrEMBL) Secondary ID(s) of Target Chain>


> <UniProt (TrEMBL) Alternative ID(s) of Target Chain>


$$$$

  SciTegic09081514182D

 28 31  0  0  0  0            999 V2000
   -2.6111    0.7486    0.0000 C   0  0
   -2.6111   -0.7486    0.0000 C   0  0
   -1.2964   -1.4973    0.0000 C   0  0
   -1.2964    1.4973    0.0000 C   0  0
    0.0000    0.7486    0.0000 C   0  0
    0.0000   -0.7486    0.0000 C   0  0
    1.2964   -1.4973    0.0000 N   0  0
    2.5929   -0.7486    0.0000 C   0  0
    2.5929    0.7486    0.0000 C   0  0
    1.2964    1.4973    0.0000 C   0  0
    1.2964    2.9980    0.0000 N   0  0
   -0.0014    3.7503    0.0000 C   0  0
    0.0011    5.2503    0.0000 C   0  0
    1.3014    5.9981    0.0000 C   0  0
    2.5992    5.2460    0.0000 C   0  0
    2.5967    3.7460    0.0000 C   0  0
    1.3069    7.4990    0.0000 N   0  0
    2.6090    8.2454    0.0000 C   0  0
    3.6462    7.6419    0.0000 O   0  0
    2.6145    9.7462    0.0000 N   0  0
    3.9166   10.4926    0.0000 C   0  0
    3.9243   11.9926    0.0000 C   0  0
    5.2272   12.7360    0.0000 C   0  0
    6.5224   11.9794    0.0000 C   0  0
    6.5147   10.4794    0.0000 C   0  0
    5.2119    9.7360    0.0000 C   0  0
    3.6321   -1.3486    0.0000 C   0  0
    7.5647   12.5740    0.0000 F   0  0
  1  2  2  0
  2  3  1  0
  3  6  2  0
  5  4  2  0
  4  1  1  0
  5  6  1  0
  6  7  1  0
  7  8  2  0
  8  9  1  0
  9 10  2  0
 10  5  1  0
 11 12  1  0
 11 16  1  0
 12 13  1  0
 13 14  1  0
 14 15  1  0
 15 16  1  0
 10 11  1  0
 14 17  1  0
 17 18  1  0
 18 19  2  0
 18 20  1  0
 20 21  1  0
 21 22  2  0
 22 23  1  0
 23 24  2  0
 24 25  1  0
 25 26  2  0
 26 21  1  0
  8 27  1  0
 24 28  1  0
M  END
> <From> 
www.bindingDB.org

> <BindingDB Reactant_set_id>
50303819

> <Ligand InChI>
InChI=1S/C22H23FN4O/c1-15-14-21(19-4-2-3-5-20(19)24-15)27-12-10-18(11-13-27)26-22(28)25-17-8-6-16(23)7-9-17/h2-9,14,18H,10-13H2,1H3,(H2,25,26,28)

> <Ligand InChI Key>
JMZKSBXQHGKKHS-UHFFFAOYSA-N

> <BindingDB MonomerID>
50066966

> <BindingDB Ligand Name>
CHEMBL3403243

> <Target Name Assigned by Curator or DataSource>
DNA gyrase subunit B

> <Target Source Organism According to Curator or DataSource>


> <Ki (nM)>


> <IC50 (nM)>
 34880

> <Kd (nM)>


> <EC50 (nM)>


> <kon (M-1-s-1)>


> <koff (s-1)>


> <pH>


> <Temp C>


> <Curation/DataSource>
ChEMBL

> <Article DOI>
10.1016/j.bmc.2015.03.004

> <PMID>
25801151

> <PubChem AID>


> <Patent Number>


> <Authors>
Medapi, B; Renuka, J; Saxena, S; Sridevi, JP; Medishetti, R; Kulkarni, P; Yogeeswari, P; Sriram, D

> <Institution>
Birla Institute of Technology&amp; Science-Pilani

> <Link to Ligand in BindingDB>
http://www.bindingdb.org/bind/chemsearch/marvin/MolStructure.jsp?monomerid=50066966

> <Link to Ligand-Target Pair in BindingDB>
http://www.bindingdb.org/jsp/dbsearch/PrimarySearch_ki.jsp?energyterm=kJ/mole&tag=pol&polymerid=50006452&target=DNA+gyrase+subunit+B&column=ki&startPg=0&Increment=50&submit=Search

> <Link to Ligand-Target Pair in BindingDB>
http://www.bindingdb.org/jsp/dbsearch/PrimarySearch_ki.jsp?energyterm=kJ/mole&tag=r21&monomerid=50066966&enzyme=DNA+gyrase+subunit+B&column=ki&startPg=0&Increment=50&submit=Search

> <Ligand HET ID in PDB>


> <PDB ID(s) for Ligand-Target Complex>


> <PubChem CID>
118729659

> <PubChem SID>
103961502

> <ChEBI ID of Ligand>


> <ChEMBL ID of Ligand>
CHEMBL34327

> <DrugBank ID of Ligand>


> <IUPHAR_GRAC ID of Ligand>


> <KEGG ID of Ligand>


> <ZINC ID of Ligand>
ZINC13494188

> <Number of Protein Chains in Target (>1 implies a multichain complex)>
1

> <BindingDB Target Chain Sequence>
MAAQKNNAPKEYGADSITILEGLEAVRKRPGMYIGSTGERGLHHLIWEVVDNAVDEAMAGFATRVDVKIHADGSVEVRDDGRGIPVEMHATGMPTIDVVMTQLHAGGKFDGETYAVSGGLHGVGVSVVNALSTRLEATVLRDGYEWFQYYDRSVPGKLKQGGETKETGTTIRFWADPEIFETTDYNFETVARRLQEMAFLNKGLTIELTDERVTAEEVVDDVVKDTAEAPKTADEKAAEATGPSKVKHRVFHYPGGLVDYVKHINRTKTPIQQSIIDFDGKGPGHEVEIAMQWNAGYSESVHTFANTINTHEGGTHEEGFRAALTSVVNRYAKDKKLLKDKDPNLTGDDIREGLAAVISVKVAEPQFEGQTKTKLGNTEVKSFVQKICNEQLQHWFEANPAEAKTVVNKAVSSAQARIAARKARELVRRKSATDIGGLPGKLADCRSTDPSKSELYVVEGDSAGGSAKSGRDSMFQAILPLRGKIINVEKARIDRVLKNTEVQSIITALGTGIHDEFDISKLRYHKIVLMADADVDGQHISTLLLTLLFRFMKPLVENGHIFLAQPPLYKLKWQRSEPEFAYSDRERDGLLEAGRAAGKKINVDDGIQRYKGLGEMDAKELWETTMDPSVRVLRQVTLDDAAAADELFSILMGEDVEARRSFITRNAKDVRFLDV

> <PDB ID(s) of Target Chain>
4BAE

> <UniProt (SwissProt) Recommended Name of Target Chain>
DNA gyrase subunit B

> <UniProt (SwissProt) Entry Name of Target Chain>
GYRB_MYCSM

> <UniProt (SwissProt) Primary ID of Target Chain>
P0C559

> <UniProt (SwissProt) Secondary ID(s) of Target Chain>
P48355,Q59555

> <UniProt (SwissProt) Alternative ID(s) of Target Chain>


> <UniProt (TrEMBL) Submitted Name of Target Chain>


> <UniProt (TrEMBL) Entry Name of Target Chain>


> <UniProt (TrEMBL) Primary ID of Target Chain>


> <UniProt (TrEMBL) Secondary ID(s) of Target Chain>


> <UniProt (TrEMBL) Alternative ID(s) of Target Chain>


$$$$

  SciTegic12221704422D

 28 30  0  0  0  0            999 V2000
   10.0246  -11.1414    0.0000 O   0  0
    9.6160  -10.4323    0.0000 C   0  0
    8.7988  -10.4323    0.0000 C   0  0
    8.3186   -9.7732    0.0000 C   0  0
    7.5414  -10.0237    0.0000 C   0  0
    6.8823   -9.5436    0.0000 Cl  0  0
    7.5414  -10.8409    0.0000 C   0  0
    6.8823  -11.3210    0.0000 Cl  0  0
    8.3186  -11.0914    0.0000 N   0  0
   10.0246   -9.7232    0.0000 N   0  0
   10.8418   -9.7232    0.0000 C   0  0
   11.3219  -10.3865    0.0000 N   0  0
   12.0991  -10.1318    0.0000 C   0  0
   12.8082  -10.5404    0.0000 C   0  0
   13.5132  -10.1318    0.0000 C   0  0
   13.5132   -9.3146    0.0000 C   0  0
   14.2223   -8.9060    0.0000 N   0  0
   14.9314   -9.3146    0.0000 C   0  0
   14.9314  -10.1318    0.0000 C   0  0
   15.6404  -10.5404    0.0000 C   0  0
   16.3454  -10.1318    0.0000 C   0  0
   17.0545  -10.5404    0.0000 O   0  0
   17.0545  -11.3576    0.0000 C   0  0
   16.3454   -9.3146    0.0000 O   0  0
   15.6404   -8.9060    0.0000 O   0  0
   12.8082   -8.9060    0.0000 C   0  0
   12.0991   -9.3146    0.0000 C   0  0
   11.3219   -9.0641    0.0000 S   0  0
  1  2  2  0
  2  3  1  0
  3  4  2  0
  4  5  1  0
  5  6  1  0
  5  7  2  0
  7  8  1  0
  7  9  1  0
  3  9  1  0
  2 10  1  0
 10 11  1  0
 11 12  2  0
 12 13  1  0
 13 14  2  0
 14 15  1  0
 15 16  2  0
 16 17  1  0
 17 18  1  0
 18 19  1  0
 19 20  1  0
 20 21  1  0
 21 22  1  0
 22 23  1  0
 21 24  2  0
 18 25  2  0
 16 26  1  0
 26 27  2  0
 13 27  1  0
 27 28  1  0
 11 28  1  0
M  END
> <From> 
www.bindingDB.org

> <BindingDB Reactant_set_id>
50524107

> <Ligand InChI>
InChI=1S/C17H14Cl2N4O4S/c1-27-14(25)5-4-13(24)20-8-2-3-10-12(6-8)28-17(22-10)23-16(26)11-7-9(18)15(19)21-11/h2-3,6-7,21H,4-5H2,1H3,(H,20,24)(H,22,23,26)

> <Ligand InChI Key>
SUKOIIJJKMQGFR-UHFFFAOYSA-N

> <BindingDB MonomerID>
50198242

> <BindingDB Ligand Name>
CHEMBL3945326

> <Target Name Assigned by Curator or DataSource>
DNA Gyrase Subunit B

> <Target Source Organism According to Curator or DataSource>
Escherichia coli

> <Ki (nM)>


> <IC50 (nM)>
 35000

> <Kd (nM)>


> <EC50 (nM)>


> <kon (M-1-s-1)>


> <koff (s-1)>


> <pH>


> <Temp C>


> <Curation/DataSource>
ChEMBL

> <Article DOI>
10.1021/acs.jmedchem.6b00864

> <PMID>
27541007

> <PubChem AID>


> <Patent Number>


> <Authors>
Gjorgjieva, M; Tomaic, T; Barancokova, M; Katsamakas, S; Ila, J; Tammela, P; Peterlin Maic, L; Kikelj, D

> <Institution>
University of Ljubljana

> <Link to Ligand in BindingDB>
http://www.bindingdb.org/bind/chemsearch/marvin/MolStructure.jsp?monomerid=50198242

> <Link to Ligand-Target Pair in BindingDB>
http://www.bindingdb.org/jsp/dbsearch/PrimarySearch_ki.jsp?energyterm=kJ/mole&tag=pol&polymerid=2630&target=DNA+Gyrase+Subunit+B&column=ki&startPg=0&Increment=50&submit=Search

> <Link to Ligand-Target Pair in BindingDB>
http://www.bindingdb.org/jsp/dbsearch/PrimarySearch_ki.jsp?energyterm=kJ/mole&tag=r21&monomerid=50198242&enzyme=DNA+Gyrase+Subunit+B&column=ki&startPg=0&Increment=50&submit=Search

> <Ligand HET ID in PDB>


> <PDB ID(s) for Ligand-Target Complex>


> <PubChem CID>
134146448

> <PubChem SID>
375978194

> <ChEBI ID of Ligand>


> <ChEMBL ID of Ligand>


> <DrugBank ID of Ligand>


> <IUPHAR_GRAC ID of Ligand>


> <KEGG ID of Ligand>


> <ZINC ID of Ligand>


> <Number of Protein Chains in Target (>1 implies a multichain complex)>
1

> <BindingDB Target Chain Sequence>
MSNSYDSSSIKVLKGLDAVRKRPGMYIGDTDDGTGLHHMVFEVVDNAIDEALAGHCKEII
VTIHADNSVSVQDDGRGIPTGIHPEEGVSAAEVIMTVLHAGGKFDDNSYKVSGGLHGVGV
SVVNALSQKLELVIQREGKIHRQIYEHGVPQAPLAVTGETEKTGTMVRFWPSLETFTNVT
EFEYEILAKRLRELSFLNSGVSIRLRDKRDGKEDHFHYEGGIKAFVEYLNKNKTPIHPNI
FYFSTEKDGIGVEVALQWNDGFQENIYCFTNNIPQRDGGTHLAGFRAAMTRTLNAYMDKE
GYSKKAKVSATGDDAREGLIAVVSVKVPDPKFSSQTKDKLVSSEVKSAVEQQMNELLAEY
LLENPTDAKIVVGKIIDAARAREAARRAREMTRRKGALDLAGLPGKLADCQERDPALSEL
YLVEGDSAGGSAKQGRNRKNQAILPLKGKILNVEKARFDKMLSSQEVATLITALGCGIGR
DEYNPDKLRYHSIIIMTDADVDGSHIRTLLLTFFYRQMPEIVERGHVYIAQPPLYKVKKG
KQEQYIKDDEAMDQYQISIALDGATLHTNASAPALAGEALEKLVSEYNATQKMINRMERR
YPKAMLKELIYQPTLTEADLSDEQTVTRWVNALVSELNDKEQHGSQWKFDVHTNAEQNLF
EPIVRVRTHGVDTDYPLDHEFITGGEYRRICTLGEKLRGLLEEDAFIERGERRQPVASFE
QALDWLVKESRRGLSIQRYKGLGEMNPEQLWETTMDPESRRMLRVTVKDAIAADQLFTTL
MGDAVEPRRAFIEENALKAANIDI

> <PDB ID(s) of Target Chain>
1KZN,3G7E,3NUH,4DUH,4HYP,4KFG,4PRV,4PRX,4PU9,4WUB,4WUC,4WUD,4XTJ,4ZVI,5L3J,5MMN,5MMO,5MMP,5Z4H,5Z4O,5Z9B,5Z9E,5Z9F,5Z9L,5Z9M,5Z9N,5Z9Q,6ENG,6F86,6F8J,6F94,6F96

> <UniProt (SwissProt) Recommended Name of Target Chain>
DNA gyrase subunit B

> <UniProt (SwissProt) Entry Name of Target Chain>
GYRB_ECOLI

> <UniProt (SwissProt) Primary ID of Target Chain>
P0AES6

> <UniProt (SwissProt) Secondary ID(s) of Target Chain>
O08438,P06982,Q2M811

> <UniProt (SwissProt) Alternative ID(s) of Target Chain>


> <UniProt (TrEMBL) Submitted Name of Target Chain>


> <UniProt (TrEMBL) Entry Name of Target Chain>


> <UniProt (TrEMBL) Primary ID of Target Chain>


> <UniProt (TrEMBL) Secondary ID(s) of Target Chain>


> <UniProt (TrEMBL) Alternative ID(s) of Target Chain>


$$$$

  Mrv0541 03201611132D          

 30 33  0  0  0  0            999 V2000
   27.6895   -6.9200    0.0000 O   0  0  0  0  0  0  0  0  0  0  0  0
   28.1742   -6.2504    0.0000 C   0  0  0  0  0  0  0  0  0  0  0  0
   27.6895   -5.5850    0.0000 C   0  0  0  0  0  0  0  0  0  0  0  0
   26.9049   -5.8379    0.0000 C   0  0  0  0  0  0  0  0  0  0  0  0
   26.9049   -6.6629    0.0000 C   0  0  0  0  0  0  0  0  0  0  0  0
   26.1931   -5.4254    0.0000 C   0  0  0  0  0  0  0  0  0  0  0  0
   25.4773   -5.8379    0.0000 C   0  0  0  0  0  0  0  0  0  0  0  0
   25.4773   -6.6629    0.0000 C   0  0  0  0  0  0  0  0  0  0  0  0
   26.1931   -7.0754    0.0000 C   0  0  0  0  0  0  0  0  0  0  0  0
   28.9992   -6.2504    0.0000 C   0  0  0  0  0  0  0  0  0  0  0  0
   29.4117   -6.9663    0.0000 O   0  0  0  0  0  0  0  0  0  0  0  0
   29.4117   -5.5345    0.0000 O   0  0  0  0  0  0  0  0  0  0  0  0
   24.7614   -5.4254    0.0000 N   0  0  0  0  0  0  0  0  0  0  0  0
   24.0455   -5.8379    0.0000 C   0  0  0  0  0  0  0  0  0  0  0  0
   23.3339   -5.4254    0.0000 C   0  0  0  0  0  0  0  0  0  0  0  0
   23.3339   -4.6004    0.0000 N   0  0  0  0  0  0  0  0  0  0  0  0
   24.0455   -4.1879    0.0000 C   0  0  0  0  0  0  0  0  0  0  0  0
   24.7614   -4.6004    0.0000 C   0  0  0  0  0  0  0  0  0  0  0  0
   22.6180   -4.1879    0.0000 C   0  0  0  0  0  0  0  0  0  0  0  0
   21.9063   -4.6004    0.0000 N   0  0  0  0  0  0  0  0  0  0  0  0
   22.6180   -3.3629    0.0000 S   0  0  0  0  0  0  0  0  0  0  0  0
   21.1904   -4.1879    0.0000 C   0  0  0  0  0  0  0  0  0  0  0  0
   20.4746   -4.6004    0.0000 C   0  0  0  0  0  0  0  0  0  0  0  0
   19.7629   -4.1879    0.0000 C   0  0  0  0  0  0  0  0  0  0  0  0
   19.7629   -3.3629    0.0000 C   0  0  0  0  0  0  0  0  0  0  0  0
   20.4747   -2.9504    0.0000 C   0  0  0  0  0  0  0  0  0  0  0  0
   21.1904   -3.3629    0.0000 C   0  0  0  0  0  0  0  0  0  0  0  0
   19.0471   -2.9504    0.0000 Cl  0  0  0  0  0  0  0  0  0  0  0  0
   30.2367   -5.5345    0.0000 C   0  0  0  0  0  0  0  0  0  0  0  0
   30.6492   -4.8229    0.0000 C   0  0  0  0  0  0  0  0  0  0  0  0
  1  2  4  0  0  0  0
  2  3  4  0  0  0  0
  3  4  4  0  0  0  0
  4  5  4  0  0  0  0
  1  5  4  0  0  0  0
  6  7  4  0  0  0  0
  7  8  4  0  0  0  0
  8  9  4  0  0  0  0
  5  9  4  0  0  0  0
  4  6  4  0  0  0  0
 10 11  2  0  0  0  0
 10 12  1  0  0  0  0
  2 10  1  0  0  0  0
 13 14  1  0  0  0  0
 14 15  1  0  0  0  0
 15 16  1  0  0  0  0
 16 17  1  0  0  0  0
 17 18  1  0  0  0  0
 13 18  1  0  0  0  0
 19 20  1  0  0  0  0
 19 21  2  0  0  0  0
 22 23  4  0  0  0  0
 23 24  4  0  0  0  0
 24 25  4  0  0  0  0
 25 26  4  0  0  0  0
 26 27  4  0  0  0  0
 22 27  4  0  0  0  0
 25 28  1  0  0  0  0
 20 22  1  0  0  0  0
 16 19  1  0  0  0  0
  7 13  1  0  0  0  0
 29 30  1  0  0  0  0
 12 29  1  0  0  0  0
M  END
> <From> 
www.bindingDB.org

> <BindingDB Reactant_set_id>
50254203

> <Ligand InChI>
InChI=1S/C22H22ClN3O3S/c1-2-28-21(27)20-14-15-13-18(7-8-19(15)29-20)25-9-11-26(12-10-25)22(30)24-17-5-3-16(23)4-6-17/h3-8,13-14H,2,9-12H2,1H3,(H,24,30)

> <Ligand InChI Key>
UKNZVVGFMVZLCT-UHFFFAOYSA-N

> <BindingDB MonomerID>
50037091

> <BindingDB Ligand Name>
CHEMBL3355790

> <Target Name Assigned by Curator or DataSource>
DNA gyrase subunit B

> <Target Source Organism According to Curator or DataSource>


> <Ki (nM)>


> <IC50 (nM)>
 35180

> <Kd (nM)>


> <EC50 (nM)>


> <kon (M-1-s-1)>


> <koff (s-1)>


> <pH>


> <Temp C>


> <Curation/DataSource>
ChEMBL

> <Article DOI>
10.1016/j.bmc.2014.10.016

> <PMID>
25456076

> <PubChem AID>


> <Patent Number>


> <Authors>
Reddy, KI; Srihari, K; Renuka, J; Sree, KS; Chuppala, A; Jeankumar, VU; Sridevi, JP; Babu, KS; Yogeeswari, P; Sriram, D

> <Institution>
TBA

> <Link to Ligand in BindingDB>
http://www.bindingdb.org/bind/chemsearch/marvin/MolStructure.jsp?monomerid=50037091

> <Link to Ligand-Target Pair in BindingDB>
http://www.bindingdb.org/jsp/dbsearch/PrimarySearch_ki.jsp?energyterm=kJ/mole&tag=pol&polymerid=50006452&target=DNA+gyrase+subunit+B&column=ki&startPg=0&Increment=50&submit=Search

> <Link to Ligand-Target Pair in BindingDB>
http://www.bindingdb.org/jsp/dbsearch/PrimarySearch_ki.jsp?energyterm=kJ/mole&tag=r21&monomerid=50037091&enzyme=DNA+gyrase+subunit+B&column=ki&startPg=0&Increment=50&submit=Search

> <Ligand HET ID in PDB>


> <PDB ID(s) for Ligand-Target Complex>


> <PubChem CID>
118721090

> <PubChem SID>
312528644

> <ChEBI ID of Ligand>


> <ChEMBL ID of Ligand>


> <DrugBank ID of Ligand>


> <IUPHAR_GRAC ID of Ligand>


> <KEGG ID of Ligand>


> <ZINC ID of Ligand>


> <Number of Protein Chains in Target (>1 implies a multichain complex)>
1

> <BindingDB Target Chain Sequence>
MAAQKNNAPKEYGADSITILEGLEAVRKRPGMYIGSTGERGLHHLIWEVVDNAVDEAMAGFATRVDVKIHADGSVEVRDDGRGIPVEMHATGMPTIDVVMTQLHAGGKFDGETYAVSGGLHGVGVSVVNALSTRLEATVLRDGYEWFQYYDRSVPGKLKQGGETKETGTTIRFWADPEIFETTDYNFETVARRLQEMAFLNKGLTIELTDERVTAEEVVDDVVKDTAEAPKTADEKAAEATGPSKVKHRVFHYPGGLVDYVKHINRTKTPIQQSIIDFDGKGPGHEVEIAMQWNAGYSESVHTFANTINTHEGGTHEEGFRAALTSVVNRYAKDKKLLKDKDPNLTGDDIREGLAAVISVKVAEPQFEGQTKTKLGNTEVKSFVQKICNEQLQHWFEANPAEAKTVVNKAVSSAQARIAARKARELVRRKSATDIGGLPGKLADCRSTDPSKSELYVVEGDSAGGSAKSGRDSMFQAILPLRGKIINVEKARIDRVLKNTEVQSIITALGTGIHDEFDISKLRYHKIVLMADADVDGQHISTLLLTLLFRFMKPLVENGHIFLAQPPLYKLKWQRSEPEFAYSDRERDGLLEAGRAAGKKINVDDGIQRYKGLGEMDAKELWETTMDPSVRVLRQVTLDDAAAADELFSILMGEDVEARRSFITRNAKDVRFLDV

> <PDB ID(s) of Target Chain>
4BAE

> <UniProt (SwissProt) Recommended Name of Target Chain>
DNA gyrase subunit B

> <UniProt (SwissProt) Entry Name of Target Chain>
GYRB_MYCSM

> <UniProt (SwissProt) Primary ID of Target Chain>
P0C559

> <UniProt (SwissProt) Secondary ID(s) of Target Chain>
P48355,Q59555

> <UniProt (SwissProt) Alternative ID(s) of Target Chain>


> <UniProt (TrEMBL) Submitted Name of Target Chain>


> <UniProt (TrEMBL) Entry Name of Target Chain>


> <UniProt (TrEMBL) Primary ID of Target Chain>


> <UniProt (TrEMBL) Secondary ID(s) of Target Chain>


> <UniProt (TrEMBL) Alternative ID(s) of Target Chain>


$$$$

  Mrv0541 11171616332D          

 29 32  0  0  0  0            999 V2000
   12.3784  -11.5447    0.0000 O   0  0  0  0  0  0  0  0  0  0  0  0
   12.8634  -10.8773    0.0000 C   0  0  0  0  0  0  0  0  0  0  0  0
   12.3784  -10.2098    0.0000 C   0  0  0  0  0  0  0  0  0  0  0  0
   11.5938  -10.4648    0.0000 C   0  0  0  0  0  0  0  0  0  0  0  0
   11.5938  -11.2898    0.0000 C   0  0  0  0  0  0  0  0  0  0  0  0
   10.8793  -10.0523    0.0000 C   0  0  0  0  0  0  0  0  0  0  0  0
   10.1649  -10.4648    0.0000 C   0  0  0  0  0  0  0  0  0  0  0  0
   10.1649  -11.2898    0.0000 C   0  0  0  0  0  0  0  0  0  0  0  0
   10.8793  -11.7023    0.0000 C   0  0  0  0  0  0  0  0  0  0  0  0
   13.6884  -10.8773    0.0000 C   0  0  0  0  0  0  0  0  0  0  0  0
   14.1009  -11.5918    0.0000 O   0  0  0  0  0  0  0  0  0  0  0  0
   14.1009  -10.1629    0.0000 O   0  0  0  0  0  0  0  0  0  0  0  0
    9.4504  -10.0523    0.0000 N   0  0  0  0  0  0  0  0  0  0  0  0
    8.7359  -10.4648    0.0000 C   0  0  0  0  0  0  0  0  0  0  0  0
    8.0215  -10.0523    0.0000 C   0  0  0  0  0  0  0  0  0  0  0  0
    8.0215   -9.2273    0.0000 N   0  0  0  0  0  0  0  0  0  0  0  0
    8.7359   -8.8148    0.0000 C   0  0  0  0  0  0  0  0  0  0  0  0
    9.4504   -9.2273    0.0000 C   0  0  0  0  0  0  0  0  0  0  0  0
    7.3070   -8.8148    0.0000 C   0  0  0  0  0  0  0  0  0  0  0  0
    7.3070   -7.9898    0.0000 O   0  0  0  0  0  0  0  0  0  0  0  0
    6.5925   -9.2273    0.0000 C   0  0  0  0  0  0  0  0  0  0  0  0
    5.8781   -8.8148    0.0000 C   0  0  0  0  0  0  0  0  0  0  0  0
    5.1636   -9.2273    0.0000 C   0  0  0  0  0  0  0  0  0  0  0  0
    4.4490   -8.8148    0.0000 C   0  0  0  0  0  0  0  0  0  0  0  0
    4.4490   -7.9898    0.0000 C   0  0  0  0  0  0  0  0  0  0  0  0
    5.1636   -7.5773    0.0000 C   0  0  0  0  0  0  0  0  0  0  0  0
    5.8781   -7.9898    0.0000 C   0  0  0  0  0  0  0  0  0  0  0  0
   14.9259  -10.1629    0.0000 C   0  0  0  0  0  0  0  0  0  0  0  0
   15.3384   -9.4484    0.0000 C   0  0  0  0  0  0  0  0  0  0  0  0
  1  2  4  0  0  0  0
  2  3  4  0  0  0  0
  3  4  4  0  0  0  0
  4  5  4  0  0  0  0
  1  5  4  0  0  0  0
  6  7  4  0  0  0  0
  7  8  4  0  0  0  0
  8  9  4  0  0  0  0
  5  9  4  0  0  0  0
  4  6  4  0  0  0  0
 10 11  2  0  0  0  0
 10 12  1  0  0  0  0
  2 10  1  0  0  0  0
 13 14  1  0  0  0  0
 14 15  1  0  0  0  0
 15 16  1  0  0  0  0
 16 17  1  0  0  0  0
 17 18  1  0  0  0  0
 13 18  1  0  0  0  0
 19 20  2  0  0  0  0
 19 21  1  0  0  0  0
 22 23  1  0  0  0  0
 23 24  1  0  0  0  0
 24 25  1  0  0  0  0
 25 26  1  0  0  0  0
 26 27  1  0  0  0  0
 22 27  1  0  0  0  0
 21 22  1  0  0  0  0
 16 19  1  0  0  0  0
  7 13  1  0  0  0  0
 28 29  1  0  0  0  0
 12 28  1  0  0  0  0
M  END
> <From> 
www.bindingDB.org

> <BindingDB Reactant_set_id>
50369939

> <Ligand InChI>
InChI=1S/C23H30N2O4/c1-2-28-23(27)21-16-18-15-19(8-9-20(18)29-21)24-10-12-25(13-11-24)22(26)14-17-6-4-3-5-7-17/h8-9,15-17H,2-7,10-14H2,1H3

> <Ligand InChI Key>
HTYZTYVZOIQDBR-UHFFFAOYSA-N

> <BindingDB MonomerID>
50100651

> <BindingDB Ligand Name>
CHEMBL3323164

> <Target Name Assigned by Curator or DataSource>
DNA gyrase subunit B

> <Target Source Organism According to Curator or DataSource>


> <Ki (nM)>


> <IC50 (nM)>
 36270

> <Kd (nM)>


> <EC50 (nM)>


> <kon (M-1-s-1)>


> <koff (s-1)>


> <pH>


> <Temp C>


> <Curation/DataSource>
ChEMBL

> <Article DOI>
10.1016/j.bmc.2014.06.041

> <PMID>
25129171

> <PubChem AID>


> <Patent Number>


> <Authors>
Renuka, J; Reddy, KI; Srihari, K; Jeankumar, VU; Shravan, M; Sridevi, JP; Yogeeswari, P; Babu, KS; Sriram, D

> <Institution>
Institute of Technology&amp; Science-Pilani

> <Link to Ligand in BindingDB>
http://www.bindingdb.org/bind/chemsearch/marvin/MolStructure.jsp?monomerid=50100651

> <Link to Ligand-Target Pair in BindingDB>
http://www.bindingdb.org/jsp/dbsearch/PrimarySearch_ki.jsp?energyterm=kJ/mole&tag=pol&polymerid=50006452&target=DNA+gyrase+subunit+B&column=ki&startPg=0&Increment=50&submit=Search

> <Link to Ligand-Target Pair in BindingDB>
http://www.bindingdb.org/jsp/dbsearch/PrimarySearch_ki.jsp?energyterm=kJ/mole&tag=r21&monomerid=50100651&enzyme=DNA+gyrase+subunit+B&column=ki&startPg=0&Increment=50&submit=Search

> <Ligand HET ID in PDB>


> <PDB ID(s) for Ligand-Target Complex>


> <PubChem CID>
118710576

> <PubChem SID>
318490760

> <ChEBI ID of Ligand>


> <ChEMBL ID of Ligand>


> <DrugBank ID of Ligand>


> <IUPHAR_GRAC ID of Ligand>


> <KEGG ID of Ligand>


> <ZINC ID of Ligand>


> <Number of Protein Chains in Target (>1 implies a multichain complex)>
1

> <BindingDB Target Chain Sequence>
MAAQKNNAPKEYGADSITILEGLEAVRKRPGMYIGSTGERGLHHLIWEVVDNAVDEAMAGFATRVDVKIHADGSVEVRDDGRGIPVEMHATGMPTIDVVMTQLHAGGKFDGETYAVSGGLHGVGVSVVNALSTRLEATVLRDGYEWFQYYDRSVPGKLKQGGETKETGTTIRFWADPEIFETTDYNFETVARRLQEMAFLNKGLTIELTDERVTAEEVVDDVVKDTAEAPKTADEKAAEATGPSKVKHRVFHYPGGLVDYVKHINRTKTPIQQSIIDFDGKGPGHEVEIAMQWNAGYSESVHTFANTINTHEGGTHEEGFRAALTSVVNRYAKDKKLLKDKDPNLTGDDIREGLAAVISVKVAEPQFEGQTKTKLGNTEVKSFVQKICNEQLQHWFEANPAEAKTVVNKAVSSAQARIAARKARELVRRKSATDIGGLPGKLADCRSTDPSKSELYVVEGDSAGGSAKSGRDSMFQAILPLRGKIINVEKARIDRVLKNTEVQSIITALGTGIHDEFDISKLRYHKIVLMADADVDGQHISTLLLTLLFRFMKPLVENGHIFLAQPPLYKLKWQRSEPEFAYSDRERDGLLEAGRAAGKKINVDDGIQRYKGLGEMDAKELWETTMDPSVRVLRQVTLDDAAAADELFSILMGEDVEARRSFITRNAKDVRFLDV

> <PDB ID(s) of Target Chain>
4BAE

> <UniProt (SwissProt) Recommended Name of Target Chain>
DNA gyrase subunit B

> <UniProt (SwissProt) Entry Name of Target Chain>
GYRB_MYCSM

> <UniProt (SwissProt) Primary ID of Target Chain>
P0C559

> <UniProt (SwissProt) Secondary ID(s) of Target Chain>
P48355,Q59555

> <UniProt (SwissProt) Alternative ID(s) of Target Chain>


> <UniProt (TrEMBL) Submitted Name of Target Chain>


> <UniProt (TrEMBL) Entry Name of Target Chain>


> <UniProt (TrEMBL) Primary ID of Target Chain>


> <UniProt (TrEMBL) Secondary ID(s) of Target Chain>


> <UniProt (TrEMBL) Alternative ID(s) of Target Chain>


$$$$

  Mrv0541 11171616332D          

 32 35  0  0  0  0            999 V2000
   13.0285   -8.1155    0.0000 O   0  0  0  0  0  0  0  0  0  0  0  0
   13.5134   -7.4480    0.0000 C   0  0  0  0  0  0  0  0  0  0  0  0
   13.0285   -6.7806    0.0000 C   0  0  0  0  0  0  0  0  0  0  0  0
   12.2439   -7.0355    0.0000 C   0  0  0  0  0  0  0  0  0  0  0  0
   12.2439   -7.8605    0.0000 C   0  0  0  0  0  0  0  0  0  0  0  0
   11.5294   -6.6230    0.0000 C   0  0  0  0  0  0  0  0  0  0  0  0
   10.8148   -7.0355    0.0000 C   0  0  0  0  0  0  0  0  0  0  0  0
   10.8148   -7.8605    0.0000 C   0  0  0  0  0  0  0  0  0  0  0  0
   11.5294   -8.2731    0.0000 C   0  0  0  0  0  0  0  0  0  0  0  0
   14.3384   -7.4480    0.0000 C   0  0  0  0  0  0  0  0  0  0  0  0
   14.7509   -8.1625    0.0000 O   0  0  0  0  0  0  0  0  0  0  0  0
   14.7509   -6.7336    0.0000 O   0  0  0  0  0  0  0  0  0  0  0  0
   10.1004   -6.6230    0.0000 N   0  0  0  0  0  0  0  0  0  0  0  0
    9.3859   -7.0355    0.0000 C   0  0  0  0  0  0  0  0  0  0  0  0
    8.6714   -6.6230    0.0000 C   0  0  0  0  0  0  0  0  0  0  0  0
    8.6714   -5.7980    0.0000 N   0  0  0  0  0  0  0  0  0  0  0  0
    9.3859   -5.3855    0.0000 C   0  0  0  0  0  0  0  0  0  0  0  0
   10.1004   -5.7980    0.0000 C   0  0  0  0  0  0  0  0  0  0  0  0
    7.9570   -5.3855    0.0000 C   0  0  0  0  0  0  0  0  0  0  0  0
    7.2425   -5.7980    0.0000 C   0  0  0  0  0  0  0  0  0  0  0  0
    6.5280   -5.3855    0.0000 C   0  0  0  0  0  0  0  0  0  0  0  0
    5.8136   -5.7980    0.0000 C   0  0  0  0  0  0  0  0  0  0  0  0
    5.8136   -6.6230    0.0000 C   0  0  0  0  0  0  0  0  0  0  0  0
    6.5280   -7.0355    0.0000 C   0  0  0  0  0  0  0  0  0  0  0  0
    7.2425   -6.6230    0.0000 C   0  0  0  0  0  0  0  0  0  0  0  0
    7.9570   -4.5605    0.0000 O   0  0  0  0  0  0  0  0  0  0  0  0
   15.5759   -6.7336    0.0000 C   0  0  0  0  0  0  0  0  0  0  0  0
   15.9884   -6.0191    0.0000 C   0  0  0  0  0  0  0  0  0  0  0  0
    6.5280   -4.5605    0.0000 C   0  0  0  0  0  0  0  0  0  0  0  0
    7.2425   -4.1480    0.0000 F   0  0  0  0  0  0  0  0  0  0  0  0
    5.8136   -4.1480    0.0000 F   0  0  0  0  0  0  0  0  0  0  0  0
    6.5209   -3.7334    0.0000 F   0  0  0  0  0  0  0  0  0  0  0  0
  1  2  4  0  0  0  0
  2  3  4  0  0  0  0
  3  4  4  0  0  0  0
  4  5  4  0  0  0  0
  1  5  4  0  0  0  0
  6  7  4  0  0  0  0
  7  8  4  0  0  0  0
  8  9  4  0  0  0  0
  5  9  4  0  0  0  0
  4  6  4  0  0  0  0
 10 11  2  0  0  0  0
 10 12  1  0  0  0  0
  2 10  1  0  0  0  0
 13 14  1  0  0  0  0
 14 15  1  0  0  0  0
 15 16  1  0  0  0  0
 16 17  1  0  0  0  0
 17 18  1  0  0  0  0
 13 18  1  0  0  0  0
 19 20  1  0  0  0  0
 20 21  4  0  0  0  0
 21 22  4  0  0  0  0
 22 23  4  0  0  0  0
 23 24  4  0  0  0  0
 24 25  4  0  0  0  0
 20 25  4  0  0  0  0
 19 26  2  0  0  0  0
 16 19  1  0  0  0  0
  7 13  1  0  0  0  0
 27 28  1  0  0  0  0
 12 27  1  0  0  0  0
 21 29  1  0  0  0  0
 29 30  1  0  0  0  0
 29 31  1  0  0  0  0
 29 32  1  0  0  0  0
M  END
> <From> 
www.bindingDB.org

> <BindingDB Reactant_set_id>
50369867

> <Ligand InChI>
InChI=1S/C23H21F3N2O4/c1-2-31-22(30)20-14-15-13-16(7-8-19(15)32-20)27-9-11-28(12-10-27)21(29)17-5-3-4-6-18(17)23(24,25)26/h3-8,13-14H,2,9-12H2,1H3

> <Ligand InChI Key>
RPEHYHRQGBZLPL-UHFFFAOYSA-N

> <BindingDB MonomerID>
50100642

> <BindingDB Ligand Name>
CHEMBL3323253

> <Target Name Assigned by Curator or DataSource>
DNA gyrase subunit B

> <Target Source Organism According to Curator or DataSource>


> <Ki (nM)>


> <IC50 (nM)>
 36900

> <Kd (nM)>


> <EC50 (nM)>


> <kon (M-1-s-1)>


> <koff (s-1)>


> <pH>


> <Temp C>


> <Curation/DataSource>
ChEMBL

> <Article DOI>
10.1016/j.bmc.2014.06.041

> <PMID>
25129171

> <PubChem AID>


> <Patent Number>


> <Authors>
Renuka, J; Reddy, KI; Srihari, K; Jeankumar, VU; Shravan, M; Sridevi, JP; Yogeeswari, P; Babu, KS; Sriram, D

> <Institution>
Institute of Technology&amp; Science-Pilani

> <Link to Ligand in BindingDB>
http://www.bindingdb.org/bind/chemsearch/marvin/MolStructure.jsp?monomerid=50100642

> <Link to Ligand-Target Pair in BindingDB>
http://www.bindingdb.org/jsp/dbsearch/PrimarySearch_ki.jsp?energyterm=kJ/mole&tag=pol&polymerid=50006452&target=DNA+gyrase+subunit+B&column=ki&startPg=0&Increment=50&submit=Search

> <Link to Ligand-Target Pair in BindingDB>
http://www.bindingdb.org/jsp/dbsearch/PrimarySearch_ki.jsp?energyterm=kJ/mole&tag=r21&monomerid=50100642&enzyme=DNA+gyrase+subunit+B&column=ki&startPg=0&Increment=50&submit=Search

> <Ligand HET ID in PDB>


> <PDB ID(s) for Ligand-Target Complex>


> <PubChem CID>
118710634

> <PubChem SID>
318490751

> <ChEBI ID of Ligand>


> <ChEMBL ID of Ligand>


> <DrugBank ID of Ligand>


> <IUPHAR_GRAC ID of Ligand>


> <KEGG ID of Ligand>


> <ZINC ID of Ligand>


> <Number of Protein Chains in Target (>1 implies a multichain complex)>
1

> <BindingDB Target Chain Sequence>
MAAQKNNAPKEYGADSITILEGLEAVRKRPGMYIGSTGERGLHHLIWEVVDNAVDEAMAGFATRVDVKIHADGSVEVRDDGRGIPVEMHATGMPTIDVVMTQLHAGGKFDGETYAVSGGLHGVGVSVVNALSTRLEATVLRDGYEWFQYYDRSVPGKLKQGGETKETGTTIRFWADPEIFETTDYNFETVARRLQEMAFLNKGLTIELTDERVTAEEVVDDVVKDTAEAPKTADEKAAEATGPSKVKHRVFHYPGGLVDYVKHINRTKTPIQQSIIDFDGKGPGHEVEIAMQWNAGYSESVHTFANTINTHEGGTHEEGFRAALTSVVNRYAKDKKLLKDKDPNLTGDDIREGLAAVISVKVAEPQFEGQTKTKLGNTEVKSFVQKICNEQLQHWFEANPAEAKTVVNKAVSSAQARIAARKARELVRRKSATDIGGLPGKLADCRSTDPSKSELYVVEGDSAGGSAKSGRDSMFQAILPLRGKIINVEKARIDRVLKNTEVQSIITALGTGIHDEFDISKLRYHKIVLMADADVDGQHISTLLLTLLFRFMKPLVENGHIFLAQPPLYKLKWQRSEPEFAYSDRERDGLLEAGRAAGKKINVDDGIQRYKGLGEMDAKELWETTMDPSVRVLRQVTLDDAAAADELFSILMGEDVEARRSFITRNAKDVRFLDV

> <PDB ID(s) of Target Chain>
4BAE

> <UniProt (SwissProt) Recommended Name of Target Chain>
DNA gyrase subunit B

> <UniProt (SwissProt) Entry Name of Target Chain>
GYRB_MYCSM

> <UniProt (SwissProt) Primary ID of Target Chain>
P0C559

> <UniProt (SwissProt) Secondary ID(s) of Target Chain>
P48355,Q59555

> <UniProt (SwissProt) Alternative ID(s) of Target Chain>


> <UniProt (TrEMBL) Submitted Name of Target Chain>


> <UniProt (TrEMBL) Entry Name of Target Chain>


> <UniProt (TrEMBL) Primary ID of Target Chain>


> <UniProt (TrEMBL) Secondary ID(s) of Target Chain>


> <UniProt (TrEMBL) Alternative ID(s) of Target Chain>


$$$$

  Mrv0541 11171616332D          

 27 30  0  0  0  0            999 V2000
   11.5237  -11.5280    0.0000 O   0  0  0  0  0  0  0  0  0  0  0  0
   12.0087  -10.8606    0.0000 C   0  0  0  0  0  0  0  0  0  0  0  0
   11.5237  -10.1931    0.0000 C   0  0  0  0  0  0  0  0  0  0  0  0
   10.7391  -10.4481    0.0000 C   0  0  0  0  0  0  0  0  0  0  0  0
   10.7391  -11.2731    0.0000 C   0  0  0  0  0  0  0  0  0  0  0  0
   10.0246  -10.0355    0.0000 C   0  0  0  0  0  0  0  0  0  0  0  0
    9.3102  -10.4481    0.0000 C   0  0  0  0  0  0  0  0  0  0  0  0
    9.3102  -11.2731    0.0000 C   0  0  0  0  0  0  0  0  0  0  0  0
   10.0246  -11.6856    0.0000 C   0  0  0  0  0  0  0  0  0  0  0  0
   12.8338  -10.8606    0.0000 C   0  0  0  0  0  0  0  0  0  0  0  0
   13.2463  -11.5750    0.0000 O   0  0  0  0  0  0  0  0  0  0  0  0
   13.2463  -10.1461    0.0000 O   0  0  0  0  0  0  0  0  0  0  0  0
    8.5957  -10.0355    0.0000 N   0  0  0  0  0  0  0  0  0  0  0  0
    7.8812  -10.4481    0.0000 C   0  0  0  0  0  0  0  0  0  0  0  0
    7.1668  -10.0355    0.0000 C   0  0  0  0  0  0  0  0  0  0  0  0
    7.1668   -9.2105    0.0000 N   0  0  0  0  0  0  0  0  0  0  0  0
    7.8812   -8.7980    0.0000 C   0  0  0  0  0  0  0  0  0  0  0  0
    8.5957   -9.2105    0.0000 C   0  0  0  0  0  0  0  0  0  0  0  0
    6.4523   -8.7980    0.0000 C   0  0  0  0  0  0  0  0  0  0  0  0
    6.4523   -7.9730    0.0000 O   0  0  0  0  0  0  0  0  0  0  0  0
    4.9841   -8.8750    0.0000 O   0  0  0  0  0  0  0  0  0  0  0  0
    5.7378   -9.2105    0.0000 C   0  0  0  0  0  0  0  0  0  0  0  0
    5.6516  -10.0310    0.0000 C   0  0  0  0  0  0  0  0  0  0  0  0
    4.8446  -10.2025    0.0000 C   0  0  0  0  0  0  0  0  0  0  0  0
    4.4321   -9.4881    0.0000 C   0  0  0  0  0  0  0  0  0  0  0  0
   14.0712  -10.1461    0.0000 C   0  0  0  0  0  0  0  0  0  0  0  0
   14.4837   -9.4316    0.0000 C   0  0  0  0  0  0  0  0  0  0  0  0
  1  2  4  0  0  0  0
  2  3  4  0  0  0  0
  3  4  4  0  0  0  0
  4  5  4  0  0  0  0
  1  5  4  0  0  0  0
  6  7  4  0  0  0  0
  7  8  4  0  0  0  0
  8  9  4  0  0  0  0
  5  9  4  0  0  0  0
  4  6  4  0  0  0  0
 10 11  2  0  0  0  0
 10 12  1  0  0  0  0
  2 10  1  0  0  0  0
 13 14  1  0  0  0  0
 14 15  1  0  0  0  0
 15 16  1  0  0  0  0
 16 17  1  0  0  0  0
 17 18  1  0  0  0  0
 13 18  1  0  0  0  0
 19 20  2  0  0  0  0
 21 22  4  0  0  0  0
 22 23  4  0  0  0  0
 23 24  4  0  0  0  0
 24 25  4  0  0  0  0
 21 25  4  0  0  0  0
 19 22  1  0  0  0  0
 16 19  1  0  0  0  0
  7 13  1  0  0  0  0
 26 27  1  0  0  0  0
 12 26  1  0  0  0  0
M  END
> <From> 
www.bindingDB.org

> <BindingDB Reactant_set_id>
50369928

> <Ligand InChI>
InChI=1S/C20H20N2O5/c1-2-25-20(24)18-13-14-12-15(5-6-16(14)27-18)21-7-9-22(10-8-21)19(23)17-4-3-11-26-17/h3-6,11-13H,2,7-10H2,1H3

> <Ligand InChI Key>
DWPCEKKVWGGHAV-UHFFFAOYSA-N

> <BindingDB MonomerID>
50100648

> <BindingDB Ligand Name>
CHEMBL3323167

> <Target Name Assigned by Curator or DataSource>
DNA gyrase subunit B

> <Target Source Organism According to Curator or DataSource>


> <Ki (nM)>


> <IC50 (nM)>
 37300

> <Kd (nM)>


> <EC50 (nM)>


> <kon (M-1-s-1)>


> <koff (s-1)>


> <pH>


> <Temp C>


> <Curation/DataSource>
ChEMBL

> <Article DOI>
10.1016/j.bmc.2014.06.041

> <PMID>
25129171

> <PubChem AID>


> <Patent Number>


> <Authors>
Renuka, J; Reddy, KI; Srihari, K; Jeankumar, VU; Shravan, M; Sridevi, JP; Yogeeswari, P; Babu, KS; Sriram, D

> <Institution>
Institute of Technology&amp; Science-Pilani

> <Link to Ligand in BindingDB>
http://www.bindingdb.org/bind/chemsearch/marvin/MolStructure.jsp?monomerid=50100648

> <Link to Ligand-Target Pair in BindingDB>
http://www.bindingdb.org/jsp/dbsearch/PrimarySearch_ki.jsp?energyterm=kJ/mole&tag=pol&polymerid=50006452&target=DNA+gyrase+subunit+B&column=ki&startPg=0&Increment=50&submit=Search

> <Link to Ligand-Target Pair in BindingDB>
http://www.bindingdb.org/jsp/dbsearch/PrimarySearch_ki.jsp?energyterm=kJ/mole&tag=r21&monomerid=50100648&enzyme=DNA+gyrase+subunit+B&column=ki&startPg=0&Increment=50&submit=Search

> <Ligand HET ID in PDB>


> <PDB ID(s) for Ligand-Target Complex>


> <PubChem CID>
118710579

> <PubChem SID>
318490757

> <ChEBI ID of Ligand>


> <ChEMBL ID of Ligand>


> <DrugBank ID of Ligand>


> <IUPHAR_GRAC ID of Ligand>


> <KEGG ID of Ligand>


> <ZINC ID of Ligand>


> <Number of Protein Chains in Target (>1 implies a multichain complex)>
1

> <BindingDB Target Chain Sequence>
MAAQKNNAPKEYGADSITILEGLEAVRKRPGMYIGSTGERGLHHLIWEVVDNAVDEAMAGFATRVDVKIHADGSVEVRDDGRGIPVEMHATGMPTIDVVMTQLHAGGKFDGETYAVSGGLHGVGVSVVNALSTRLEATVLRDGYEWFQYYDRSVPGKLKQGGETKETGTTIRFWADPEIFETTDYNFETVARRLQEMAFLNKGLTIELTDERVTAEEVVDDVVKDTAEAPKTADEKAAEATGPSKVKHRVFHYPGGLVDYVKHINRTKTPIQQSIIDFDGKGPGHEVEIAMQWNAGYSESVHTFANTINTHEGGTHEEGFRAALTSVVNRYAKDKKLLKDKDPNLTGDDIREGLAAVISVKVAEPQFEGQTKTKLGNTEVKSFVQKICNEQLQHWFEANPAEAKTVVNKAVSSAQARIAARKARELVRRKSATDIGGLPGKLADCRSTDPSKSELYVVEGDSAGGSAKSGRDSMFQAILPLRGKIINVEKARIDRVLKNTEVQSIITALGTGIHDEFDISKLRYHKIVLMADADVDGQHISTLLLTLLFRFMKPLVENGHIFLAQPPLYKLKWQRSEPEFAYSDRERDGLLEAGRAAGKKINVDDGIQRYKGLGEMDAKELWETTMDPSVRVLRQVTLDDAAAADELFSILMGEDVEARRSFITRNAKDVRFLDV

> <PDB ID(s) of Target Chain>
4BAE

> <UniProt (SwissProt) Recommended Name of Target Chain>
DNA gyrase subunit B

> <UniProt (SwissProt) Entry Name of Target Chain>
GYRB_MYCSM

> <UniProt (SwissProt) Primary ID of Target Chain>
P0C559

> <UniProt (SwissProt) Secondary ID(s) of Target Chain>
P48355,Q59555

> <UniProt (SwissProt) Alternative ID(s) of Target Chain>


> <UniProt (TrEMBL) Submitted Name of Target Chain>


> <UniProt (TrEMBL) Entry Name of Target Chain>


> <UniProt (TrEMBL) Primary ID of Target Chain>


> <UniProt (TrEMBL) Secondary ID(s) of Target Chain>


> <UniProt (TrEMBL) Alternative ID(s) of Target Chain>


$$$$

  Mrv0541 04241520572D          

 14 14  0  0  0  0            999 V2000
   28.4005   -7.1806    0.0000 C   0  0  0  0  0  0  0  0  0  0  0  0
   28.3993   -8.0076    0.0000 C   0  0  0  0  0  0  0  0  0  0  0  0
   29.1139   -8.4204    0.0000 C   0  0  0  0  0  0  0  0  0  0  0  0
   29.8300   -8.0072    0.0000 C   0  0  0  0  0  0  0  0  0  0  0  0
   29.8272   -7.1770    0.0000 C   0  0  0  0  0  0  0  0  0  0  0  0
   29.1121   -6.7680    0.0000 N   0  0  0  0  0  0  0  0  0  0  0  0
   27.6861   -6.7685    0.0000 N   0  0  0  0  0  0  0  0  0  0  0  0
   26.9720   -7.1809    0.0000 C   0  0  0  0  0  0  0  0  0  0  0  0
   26.2577   -6.7688    0.0000 N   0  0  0  0  0  0  0  0  0  0  0  0
   26.9722   -8.0056    0.0000 O   0  0  0  0  0  0  0  0  0  0  0  0
   25.5436   -7.1813    0.0000 C   0  0  0  0  0  0  0  0  0  0  0  0
   24.8293   -6.7692    0.0000 C   0  0  0  0  0  0  0  0  0  0  0  0
   26.2575   -5.9441    0.0000 C   0  0  0  0  0  0  0  0  0  0  0  0
   25.5432   -5.5319    0.0000 C   0  0  0  0  0  0  0  0  0  0  0  0
  1  2  4  0  0  0  0
  2  3  4  0  0  0  0
  3  4  4  0  0  0  0
  4  5  4  0  0  0  0
  5  6  4  0  0  0  0
  6  1  4  0  0  0  0
  1  7  1  0  0  0  0
  7  8  1  0  0  0  0
  8  9  1  0  0  0  0
  8 10  2  0  0  0  0
  9 11  1  0  0  0  0
 11 12  1  0  0  0  0
  9 13  1  0  0  0  0
 13 14  1  0  0  0  0
M  END
> <From> 
www.bindingDB.org

> <BindingDB Reactant_set_id>
50083250

> <Ligand InChI>
InChI=1S/C10H15N3O/c1-3-13(4-2)10(14)12-9-7-5-6-8-11-9/h5-8H,3-4H2,1-2H3,(H,11,12,14)

> <Ligand InChI Key>
SDHLWZQWLDCTLO-UHFFFAOYSA-N

> <BindingDB MonomerID>
50006541

> <BindingDB Ligand Name>
CHEMBL3235066

> <Target Name Assigned by Curator or DataSource>
DNA Gyrase Subunit B

> <Target Source Organism According to Curator or DataSource>
Staphylococcus aureus

> <Ki (nM)>


> <IC50 (nM)>
 38000

> <Kd (nM)>


> <EC50 (nM)>


> <kon (M-1-s-1)>


> <koff (s-1)>


> <pH>


> <Temp C>


> <Curation/DataSource>
ChEMBL

> <Article DOI>
10.1021/jm401208b

> <PMID>
24098982

> <PubChem AID>


> <Patent Number>


> <Authors>
Basarab, GS; Basarab, GS; Boriack-Sjodin, PA; Boriack-Sjodin, PA; Illingworth, R; Illingworth, R; Manchester, JI; Manchester, JI; Dangel, B; Dangel, B; Sriram, S; Sriram, S

> <Institution>
AstraZeneca R&amp;D Boston

> <Link to Ligand in BindingDB>
http://www.bindingdb.org/bind/chemsearch/marvin/MolStructure.jsp?monomerid=50006541

> <Link to Ligand-Target Pair in BindingDB>
http://www.bindingdb.org/jsp/dbsearch/PrimarySearch_ki.jsp?energyterm=kJ/mole&tag=pol&polymerid=2626&target=DNA+Gyrase+Subunit+B&column=ki&startPg=0&Increment=50&submit=Search

> <Link to Ligand-Target Pair in BindingDB>
http://www.bindingdb.org/jsp/dbsearch/PrimarySearch_ki.jsp?energyterm=kJ/mole&tag=r21&monomerid=50006541&enzyme=DNA+Gyrase+Subunit+B&column=ki&startPg=0&Increment=50&submit=Search

> <Ligand HET ID in PDB>


> <PDB ID(s) for Ligand-Target Complex>


> <PubChem CID>
54299657

> <PubChem SID>
242057011

> <ChEBI ID of Ligand>


> <ChEMBL ID of Ligand>
CHEMBL3235066

> <DrugBank ID of Ligand>


> <IUPHAR_GRAC ID of Ligand>


> <KEGG ID of Ligand>


> <ZINC ID of Ligand>


> <Number of Protein Chains in Target (>1 implies a multichain complex)>
1

> <BindingDB Target Chain Sequence>
MVTALSDVNNTDNYGAGQIQVLEGLEAVRKRPGMYIGSTSERGLHHLVWEIVDNSIDEALAGYANQIEVVIEKDNWIKVTDNGRGIPVDIQEKMGRPAVEVILTVLHAGGKFGGGGYKVSGGLHGVGSSVVNALSQDLEVYVHRNETIYHQAYKKGVPQFDLKEVGTTDKTGTVIRFKADGEIFTETTVYNYETLQQRIRELAFLNKGIQITLRDERDEENVREDSYHYEGGIKSYVELLNENKEPIHDEPIYIHQSKDDIEVEIAIQYNSGYATNLLTYANNIHTYEGGTHEDGFKRALTRVLNSYGLSSKIMKEEKDRLSGEDTREGMTAIISIKHGDPQFEGQTKTKLGNSEVRQVVDKLFSEHFERFLYENPQVARTVVEKGIMAARARVAAKKAREVTRRKSALDVASLPGKLADCSSKSPEECEIFLVEGDSAGGSTKSGRDSRTQAILPLRGKILNVEKARLDRILNNNEIRQMITAFGTGIGGDFDLAKARYHKIVIMTDADVDGAHIRTLLLTFFYRFMRPLIEAGYVYIAQPPLYKLTQGKQKYYVYNDRELDKLKSELNPTPKWSIARYKGLGEMNADQLWETTMNPEHRALLQVKLEDAIEADQTFEMLMGDVVENRRQFIEDNAVYANLDF

> <PDB ID(s) of Target Chain>


> <UniProt (SwissProt) Recommended Name of Target Chain>
DNA gyrase subunit B

> <UniProt (SwissProt) Entry Name of Target Chain>
GYRB_STAAU

> <UniProt (SwissProt) Primary ID of Target Chain>
P0A0K8

> <UniProt (SwissProt) Secondary ID(s) of Target Chain>
P20832

> <UniProt (SwissProt) Alternative ID(s) of Target Chain>


> <UniProt (TrEMBL) Submitted Name of Target Chain>


> <UniProt (TrEMBL) Entry Name of Target Chain>


> <UniProt (TrEMBL) Primary ID of Target Chain>


> <UniProt (TrEMBL) Secondary ID(s) of Target Chain>


> <UniProt (TrEMBL) Alternative ID(s) of Target Chain>


$$$$

  SciTegic02271514552D

 30 33  0  0  0  0            999 V2000
   10.1715   -5.7872    0.0000 O   0  0
   10.6518   -5.1261    0.0000 C   0  0
   10.1715   -4.4650    0.0000 C   0  0
    9.3943   -4.7175    0.0000 C   0  0
    9.3943   -5.5347    0.0000 C   0  0
    8.6866   -4.3089    0.0000 C   0  0
    7.9789   -4.7175    0.0000 C   0  0
    7.9789   -5.5347    0.0000 C   0  0
    8.6866   -5.9433    0.0000 C   0  0
   11.4690   -5.1261    0.0000 C   0  0
   11.8776   -5.8338    0.0000 O   0  0
   11.8776   -4.4184    0.0000 O   0  0
    7.2712   -4.3089    0.0000 N   0  0
    6.5635   -4.7175    0.0000 C   0  0
    5.8558   -4.3089    0.0000 C   0  0
    5.8558   -3.4917    0.0000 N   0  0
    6.5635   -3.0831    0.0000 C   0  0
    7.2712   -3.4917    0.0000 C   0  0
    5.1481   -3.0831    0.0000 C   0  0
    5.1481   -2.2659    0.0000 O   0  0
    4.4403   -3.4917    0.0000 C   0  0
    3.7326   -3.0831    0.0000 C   0  0
    3.0249   -3.4917    0.0000 C   0  0
    2.3172   -3.0831    0.0000 C   0  0
    2.3172   -2.2659    0.0000 C   0  0
    3.0249   -1.8573    0.0000 C   0  0
    3.7326   -2.2659    0.0000 C   0  0
    1.6095   -1.8573    0.0000 F   0  0
   12.6948   -4.4184    0.0000 C   0  0
   13.1034   -3.7107    0.0000 C   0  0
  1  2  1  0
  2  3  2  0
  3  4  1  0
  4  5  1  0
  1  5  1  0
  6  7  1  0
  7  8  2  0
  8  9  1  0
  5  9  2  0
  4  6  2  0
 10 11  2  0
 10 12  1  0
  2 10  1  0
 13 14  1  0
 14 15  1  0
 15 16  1  0
 16 17  1  0
 17 18  1  0
 13 18  1  0
 19 20  2  0
 19 21  1  0
 22 23  1  0
 23 24  2  0
 24 25  1  0
 25 26  2  0
 26 27  1  0
 22 27  2  0
 25 28  1  0
 21 22  1  0
 16 19  1  0
  7 13  1  0
 29 30  1  0
 12 29  1  0
M  END
> <From> 
www.bindingDB.org

> <BindingDB Reactant_set_id>
50369964

> <Ligand InChI>
InChI=1S/C23H23FN2O4/c1-2-29-23(28)21-15-17-14-19(7-8-20(17)30-21)25-9-11-26(12-10-25)22(27)13-16-3-5-18(24)6-4-16/h3-8,14-15H,2,9-13H2,1H3

> <Ligand InChI Key>
LREQHIDDRHSWGN-UHFFFAOYSA-N

> <BindingDB MonomerID>
50100693

> <BindingDB Ligand Name>
CHEMBL3323156

> <Target Name Assigned by Curator or DataSource>
DNA gyrase subunit B

> <Target Source Organism According to Curator or DataSource>


> <Ki (nM)>


> <IC50 (nM)>
 38380

> <Kd (nM)>


> <EC50 (nM)>


> <kon (M-1-s-1)>


> <koff (s-1)>


> <pH>


> <Temp C>


> <Curation/DataSource>
ChEMBL

> <Article DOI>
10.1016/j.bmc.2014.06.041

> <PMID>
25129171

> <PubChem AID>


> <Patent Number>


> <Authors>
Renuka, J; Reddy, KI; Srihari, K; Jeankumar, VU; Shravan, M; Sridevi, JP; Yogeeswari, P; Babu, KS; Sriram, D

> <Institution>
Institute of Technology&amp; Science-Pilani

> <Link to Ligand in BindingDB>
http://www.bindingdb.org/bind/chemsearch/marvin/MolStructure.jsp?monomerid=50100693

> <Link to Ligand-Target Pair in BindingDB>
http://www.bindingdb.org/jsp/dbsearch/PrimarySearch_ki.jsp?energyterm=kJ/mole&tag=pol&polymerid=50006452&target=DNA+gyrase+subunit+B&column=ki&startPg=0&Increment=50&submit=Search

> <Link to Ligand-Target Pair in BindingDB>
http://www.bindingdb.org/jsp/dbsearch/PrimarySearch_ki.jsp?energyterm=kJ/mole&tag=r21&monomerid=50100693&enzyme=DNA+gyrase+subunit+B&column=ki&startPg=0&Increment=50&submit=Search

> <Ligand HET ID in PDB>


> <PDB ID(s) for Ligand-Target Complex>


> <PubChem CID>
118710568

> <PubChem SID>
103997421

> <ChEBI ID of Ligand>


> <ChEMBL ID of Ligand>
CHEMBL308206

> <DrugBank ID of Ligand>


> <IUPHAR_GRAC ID of Ligand>


> <KEGG ID of Ligand>


> <ZINC ID of Ligand>
ZINC26294282

> <Number of Protein Chains in Target (>1 implies a multichain complex)>
1

> <BindingDB Target Chain Sequence>
MAAQKNNAPKEYGADSITILEGLEAVRKRPGMYIGSTGERGLHHLIWEVVDNAVDEAMAGFATRVDVKIHADGSVEVRDDGRGIPVEMHATGMPTIDVVMTQLHAGGKFDGETYAVSGGLHGVGVSVVNALSTRLEATVLRDGYEWFQYYDRSVPGKLKQGGETKETGTTIRFWADPEIFETTDYNFETVARRLQEMAFLNKGLTIELTDERVTAEEVVDDVVKDTAEAPKTADEKAAEATGPSKVKHRVFHYPGGLVDYVKHINRTKTPIQQSIIDFDGKGPGHEVEIAMQWNAGYSESVHTFANTINTHEGGTHEEGFRAALTSVVNRYAKDKKLLKDKDPNLTGDDIREGLAAVISVKVAEPQFEGQTKTKLGNTEVKSFVQKICNEQLQHWFEANPAEAKTVVNKAVSSAQARIAARKARELVRRKSATDIGGLPGKLADCRSTDPSKSELYVVEGDSAGGSAKSGRDSMFQAILPLRGKIINVEKARIDRVLKNTEVQSIITALGTGIHDEFDISKLRYHKIVLMADADVDGQHISTLLLTLLFRFMKPLVENGHIFLAQPPLYKLKWQRSEPEFAYSDRERDGLLEAGRAAGKKINVDDGIQRYKGLGEMDAKELWETTMDPSVRVLRQVTLDDAAAADELFSILMGEDVEARRSFITRNAKDVRFLDV

> <PDB ID(s) of Target Chain>
4BAE

> <UniProt (SwissProt) Recommended Name of Target Chain>
DNA gyrase subunit B

> <UniProt (SwissProt) Entry Name of Target Chain>
GYRB_MYCSM

> <UniProt (SwissProt) Primary ID of Target Chain>
P0C559

> <UniProt (SwissProt) Secondary ID(s) of Target Chain>
P48355,Q59555

> <UniProt (SwissProt) Alternative ID(s) of Target Chain>


> <UniProt (TrEMBL) Submitted Name of Target Chain>


> <UniProt (TrEMBL) Entry Name of Target Chain>


> <UniProt (TrEMBL) Primary ID of Target Chain>


> <UniProt (TrEMBL) Secondary ID(s) of Target Chain>


> <UniProt (TrEMBL) Alternative ID(s) of Target Chain>


$$$$

  SciTegic04201612532D

 35 38  0  0  0  0            999 V2000
   -1.2964    1.4973    0.0000 N   0  0
   -2.6111    0.7486    0.0000 C   0  0
   -2.6111   -0.7486    0.0000 C   0  0
   -1.2964   -1.4973    0.0000 C   0  0
    0.0000   -0.7486    0.0000 C   0  0
    1.2964   -1.4973    0.0000 C   0  0
    2.5929   -0.7486    0.0000 C   0  0
    2.5929    0.7486    0.0000 C   0  0
    1.2964    1.4973    0.0000 C   0  0
    0.0000    0.7486    0.0000 C   0  0
   -3.9122   -1.4966    0.0000 C   0  0
   -3.9138   -2.4966    0.0000 O   0  0
   -5.2109   -0.7445    0.0000 N   0  0
   -1.2907   -2.9981    0.0000 N   0  0
   -2.5870   -3.7544    0.0000 C   0  0
   -2.5835   -5.2544    0.0000 C   0  0
   -3.8807   -6.0076    0.0000 C   0  0
   -5.1815   -5.2608    0.0000 C   0  0
   -5.1852   -3.7608    0.0000 C   0  0
   -3.8880   -3.0076    0.0000 C   0  0
   -6.4810   -6.0117    0.0000 O   0  0
   -7.7815   -5.2626    0.0000 C   0  0
   -9.0810   -6.0135    0.0000 C   0  0
  -10.3815   -5.2644    0.0000 C   0  0
  -14.2755   -7.5217    0.0000 O   0  0
  -14.2791   -6.0217    0.0000 C   0  0
  -12.9819   -5.2686    0.0000 C   0  0
  -11.6810   -6.0154    0.0000 N   0  0
  -11.6774   -7.5154    0.0000 C   0  0
  -12.9746   -8.2686    0.0000 C   0  0
   -6.2513   -1.3425    0.0000 N   0  0
    3.8926   -1.4991    0.0000 C   0  0
    3.8934   -2.6991    0.0000 F   0  0
    4.9317   -0.8987    0.0000 F   0  0
    4.9322   -2.0986    0.0000 F   0  0
  1  2  2  0
  2  3  1  0
  3  4  2  0
  4  5  1  0
  5  6  2  0
  6  7  1  0
  7  8  2  0
  8  9  1  0
  9 10  2  0
  1 10  1  0
  5 10  1  0
 11 12  2  0
 11 13  1  0
  3 11  1  0
 15 16  1  0
 16 17  2  0
 17 18  1  0
 18 19  2  0
 19 20  1  0
 15 20  2  0
 22 23  1  0
 23 24  1  0
 21 22  1  0
 25 26  1  0
 26 27  1  0
 27 28  1  0
 28 29  1  0
 29 30  1  0
 25 30  1  0
 24 28  1  0
 18 21  1  0
 14 15  1  0
  4 14  1  0
 13 31  1  0
 32 33  1  0
 32 34  1  0
 32 35  1  0
  7 32  1  0
M  END
> <From> 
www.bindingDB.org

> <BindingDB Reactant_set_id>
50426775

> <Ligand InChI>
InChI=1S/C24H26F3N5O3/c25-24(26,27)16-2-7-21-19(14-16)22(20(15-29-21)23(33)31-28)30-17-3-5-18(6-4-17)35-11-1-8-32-9-12-34-13-10-32/h2-7,14-15H,1,8-13,28H2,(H,29,30)(H,31,33)

> <Ligand InChI Key>
RMHVWFJQELCYCY-UHFFFAOYSA-N

> <BindingDB MonomerID>
50126794

> <BindingDB Ligand Name>
CHEMBL3628443

> <Target Name Assigned by Curator or DataSource>
DNA gyrase subunit B

> <Target Source Organism According to Curator or DataSource>


> <Ki (nM)>


> <IC50 (nM)>
 38660

> <Kd (nM)>


> <EC50 (nM)>


> <kon (M-1-s-1)>


> <koff (s-1)>


> <pH>


> <Temp C>


> <Curation/DataSource>
ChEMBL

> <Article DOI>
10.1016/j.ejmech.2015.06.032

> <PMID>
26318054

> <PubChem AID>


> <Patent Number>


> <Authors>
Medapi, B; Suryadevara, P; Renuka, J; Sridevi, JP; Yogeeswari, P; Sriram, D

> <Institution>
Birla Institute of Technology&amp;Science

> <Link to Ligand in BindingDB>
http://www.bindingdb.org/bind/chemsearch/marvin/MolStructure.jsp?monomerid=50126794

> <Link to Ligand-Target Pair in BindingDB>
http://www.bindingdb.org/jsp/dbsearch/PrimarySearch_ki.jsp?energyterm=kJ/mole&tag=pol&polymerid=50006452&target=DNA+gyrase+subunit+B&column=ki&startPg=0&Increment=50&submit=Search

> <Link to Ligand-Target Pair in BindingDB>
http://www.bindingdb.org/jsp/dbsearch/PrimarySearch_ki.jsp?energyterm=kJ/mole&tag=r21&monomerid=50126794&enzyme=DNA+gyrase+subunit+B&column=ki&startPg=0&Increment=50&submit=Search

> <Ligand HET ID in PDB>


> <PDB ID(s) for Ligand-Target Complex>


> <PubChem CID>
122193456

> <PubChem SID>
321902396

> <ChEBI ID of Ligand>


> <ChEMBL ID of Ligand>


> <DrugBank ID of Ligand>


> <IUPHAR_GRAC ID of Ligand>


> <KEGG ID of Ligand>


> <ZINC ID of Ligand>


> <Number of Protein Chains in Target (>1 implies a multichain complex)>
1

> <BindingDB Target Chain Sequence>
MAAQKNNAPKEYGADSITILEGLEAVRKRPGMYIGSTGERGLHHLIWEVVDNAVDEAMAGFATRVDVKIHADGSVEVRDDGRGIPVEMHATGMPTIDVVMTQLHAGGKFDGETYAVSGGLHGVGVSVVNALSTRLEATVLRDGYEWFQYYDRSVPGKLKQGGETKETGTTIRFWADPEIFETTDYNFETVARRLQEMAFLNKGLTIELTDERVTAEEVVDDVVKDTAEAPKTADEKAAEATGPSKVKHRVFHYPGGLVDYVKHINRTKTPIQQSIIDFDGKGPGHEVEIAMQWNAGYSESVHTFANTINTHEGGTHEEGFRAALTSVVNRYAKDKKLLKDKDPNLTGDDIREGLAAVISVKVAEPQFEGQTKTKLGNTEVKSFVQKICNEQLQHWFEANPAEAKTVVNKAVSSAQARIAARKARELVRRKSATDIGGLPGKLADCRSTDPSKSELYVVEGDSAGGSAKSGRDSMFQAILPLRGKIINVEKARIDRVLKNTEVQSIITALGTGIHDEFDISKLRYHKIVLMADADVDGQHISTLLLTLLFRFMKPLVENGHIFLAQPPLYKLKWQRSEPEFAYSDRERDGLLEAGRAAGKKINVDDGIQRYKGLGEMDAKELWETTMDPSVRVLRQVTLDDAAAADELFSILMGEDVEARRSFITRNAKDVRFLDV

> <PDB ID(s) of Target Chain>
4BAE

> <UniProt (SwissProt) Recommended Name of Target Chain>
DNA gyrase subunit B

> <UniProt (SwissProt) Entry Name of Target Chain>
GYRB_MYCSM

> <UniProt (SwissProt) Primary ID of Target Chain>
P0C559

> <UniProt (SwissProt) Secondary ID(s) of Target Chain>
P48355,Q59555

> <UniProt (SwissProt) Alternative ID(s) of Target Chain>


> <UniProt (TrEMBL) Submitted Name of Target Chain>


> <UniProt (TrEMBL) Entry Name of Target Chain>


> <UniProt (TrEMBL) Primary ID of Target Chain>


> <UniProt (TrEMBL) Secondary ID(s) of Target Chain>


> <UniProt (TrEMBL) Alternative ID(s) of Target Chain>


$$$$

  SciTegic04201612532D

 36 39  0  0  0  0            999 V2000
   -1.2964    1.4973    0.0000 N   0  0
   -2.6111    0.7486    0.0000 C   0  0
   -2.6111   -0.7486    0.0000 C   0  0
   -1.2964   -1.4973    0.0000 C   0  0
    0.0000   -0.7486    0.0000 C   0  0
    1.2964   -1.4973    0.0000 C   0  0
    2.5929   -0.7486    0.0000 C   0  0
    2.5929    0.7486    0.0000 C   0  0
    1.2964    1.4973    0.0000 C   0  0
    0.0000    0.7486    0.0000 C   0  0
   -3.9122   -1.4966    0.0000 C   0  0
   -3.9138   -2.4966    0.0000 O   0  0
   -5.2109   -0.7445    0.0000 O   0  0
   -1.2907   -2.9981    0.0000 N   0  0
   -2.5870   -3.7544    0.0000 C   0  0
   -2.5835   -5.2544    0.0000 C   0  0
   -3.8807   -6.0076    0.0000 C   0  0
   -5.1815   -5.2608    0.0000 C   0  0
   -5.1852   -3.7608    0.0000 C   0  0
   -3.8880   -3.0076    0.0000 C   0  0
   -6.4810   -6.0117    0.0000 O   0  0
   -7.7815   -5.2626    0.0000 C   0  0
   -9.0810   -6.0135    0.0000 C   0  0
  -10.3815   -5.2644    0.0000 C   0  0
  -14.2755   -7.5217    0.0000 O   0  0
  -14.2791   -6.0217    0.0000 C   0  0
  -12.9819   -5.2686    0.0000 C   0  0
  -11.6810   -6.0154    0.0000 N   0  0
  -11.6774   -7.5154    0.0000 C   0  0
  -12.9746   -8.2686    0.0000 C   0  0
   -6.5121   -1.4924    0.0000 C   0  0
   -7.5506   -0.8910    0.0000 C   0  0
    3.8926   -1.4991    0.0000 C   0  0
    3.8934   -2.6991    0.0000 F   0  0
    4.9317   -0.8987    0.0000 F   0  0
    4.9322   -2.0986    0.0000 F   0  0
  1  2  2  0
  2  3  1  0
  3  4  2  0
  4  5  1  0
  5  6  2  0
  6  7  1  0
  7  8  2  0
  8  9  1  0
  9 10  2  0
  1 10  1  0
  5 10  1  0
 11 12  2  0
 11 13  1  0
  3 11  1  0
 15 16  1  0
 16 17  2  0
 17 18  1  0
 18 19  2  0
 19 20  1  0
 15 20  2  0
 22 23  1  0
 23 24  1  0
 21 22  1  0
 25 26  1  0
 26 27  1  0
 27 28  1  0
 28 29  1  0
 29 30  1  0
 25 30  1  0
 24 28  1  0
 18 21  1  0
 14 15  1  0
  4 14  1  0
 31 32  1  0
 13 31  1  0
 33 34  1  0
 33 35  1  0
 33 36  1  0
  7 33  1  0
M  END
> <From> 
www.bindingDB.org

> <BindingDB Reactant_set_id>
50426791

> <Ligand InChI>
InChI=1S/C26H28F3N3O4/c1-2-35-25(33)22-17-30-23-9-4-18(26(27,28)29)16-21(23)24(22)31-19-5-7-20(8-6-19)36-13-3-10-32-11-14-34-15-12-32/h4-9,16-17H,2-3,10-15H2,1H3,(H,30,31)

> <Ligand InChI Key>
ADWURTUVOMHDIA-UHFFFAOYSA-N

> <BindingDB MonomerID>
50126838

> <BindingDB Ligand Name>
CHEMBL3628350

> <Target Name Assigned by Curator or DataSource>
DNA gyrase subunit B

> <Target Source Organism According to Curator or DataSource>


> <Ki (nM)>


> <IC50 (nM)>
 38840

> <Kd (nM)>


> <EC50 (nM)>


> <kon (M-1-s-1)>


> <koff (s-1)>


> <pH>


> <Temp C>


> <Curation/DataSource>
ChEMBL

> <Article DOI>
10.1016/j.ejmech.2015.06.032

> <PMID>
26318054

> <PubChem AID>


> <Patent Number>


> <Authors>
Medapi, B; Suryadevara, P; Renuka, J; Sridevi, JP; Yogeeswari, P; Sriram, D

> <Institution>
Birla Institute of Technology&amp;Science

> <Link to Ligand in BindingDB>
http://www.bindingdb.org/bind/chemsearch/marvin/MolStructure.jsp?monomerid=50126838

> <Link to Ligand-Target Pair in BindingDB>
http://www.bindingdb.org/jsp/dbsearch/PrimarySearch_ki.jsp?energyterm=kJ/mole&tag=pol&polymerid=50006452&target=DNA+gyrase+subunit+B&column=ki&startPg=0&Increment=50&submit=Search

> <Link to Ligand-Target Pair in BindingDB>
http://www.bindingdb.org/jsp/dbsearch/PrimarySearch_ki.jsp?energyterm=kJ/mole&tag=r21&monomerid=50126838&enzyme=DNA+gyrase+subunit+B&column=ki&startPg=0&Increment=50&submit=Search

> <Ligand HET ID in PDB>


> <PDB ID(s) for Ligand-Target Complex>


> <PubChem CID>
122193391

> <PubChem SID>
104018906

> <ChEBI ID of Ligand>


> <ChEMBL ID of Ligand>


> <DrugBank ID of Ligand>


> <IUPHAR_GRAC ID of Ligand>


> <KEGG ID of Ligand>


> <ZINC ID of Ligand>
ZINC29316929

> <Number of Protein Chains in Target (>1 implies a multichain complex)>
1

> <BindingDB Target Chain Sequence>
MAAQKNNAPKEYGADSITILEGLEAVRKRPGMYIGSTGERGLHHLIWEVVDNAVDEAMAGFATRVDVKIHADGSVEVRDDGRGIPVEMHATGMPTIDVVMTQLHAGGKFDGETYAVSGGLHGVGVSVVNALSTRLEATVLRDGYEWFQYYDRSVPGKLKQGGETKETGTTIRFWADPEIFETTDYNFETVARRLQEMAFLNKGLTIELTDERVTAEEVVDDVVKDTAEAPKTADEKAAEATGPSKVKHRVFHYPGGLVDYVKHINRTKTPIQQSIIDFDGKGPGHEVEIAMQWNAGYSESVHTFANTINTHEGGTHEEGFRAALTSVVNRYAKDKKLLKDKDPNLTGDDIREGLAAVISVKVAEPQFEGQTKTKLGNTEVKSFVQKICNEQLQHWFEANPAEAKTVVNKAVSSAQARIAARKARELVRRKSATDIGGLPGKLADCRSTDPSKSELYVVEGDSAGGSAKSGRDSMFQAILPLRGKIINVEKARIDRVLKNTEVQSIITALGTGIHDEFDISKLRYHKIVLMADADVDGQHISTLLLTLLFRFMKPLVENGHIFLAQPPLYKLKWQRSEPEFAYSDRERDGLLEAGRAAGKKINVDDGIQRYKGLGEMDAKELWETTMDPSVRVLRQVTLDDAAAADELFSILMGEDVEARRSFITRNAKDVRFLDV

> <PDB ID(s) of Target Chain>
4BAE

> <UniProt (SwissProt) Recommended Name of Target Chain>
DNA gyrase subunit B

> <UniProt (SwissProt) Entry Name of Target Chain>
GYRB_MYCSM

> <UniProt (SwissProt) Primary ID of Target Chain>
P0C559

> <UniProt (SwissProt) Secondary ID(s) of Target Chain>
P48355,Q59555

> <UniProt (SwissProt) Alternative ID(s) of Target Chain>


> <UniProt (TrEMBL) Submitted Name of Target Chain>


> <UniProt (TrEMBL) Entry Name of Target Chain>


> <UniProt (TrEMBL) Primary ID of Target Chain>


> <UniProt (TrEMBL) Secondary ID(s) of Target Chain>


> <UniProt (TrEMBL) Alternative ID(s) of Target Chain>


$$$$

  SciTegic04201612532D

 32 35  0  0  0  0            999 V2000
   -1.2964    1.4973    0.0000 N   0  0
   -2.6111    0.7486    0.0000 C   0  0
   -2.6111   -0.7486    0.0000 C   0  0
   -1.2964   -1.4973    0.0000 C   0  0
    0.0000   -0.7486    0.0000 C   0  0
    1.2964   -1.4973    0.0000 C   0  0
    2.5929   -0.7486    0.0000 C   0  0
    2.5929    0.7486    0.0000 C   0  0
    1.2964    1.4973    0.0000 C   0  0
    0.0000    0.7486    0.0000 C   0  0
   -3.9122   -1.4966    0.0000 C   0  0
   -4.9506   -0.8952    0.0000 O   0  0
   -1.2907   -2.9981    0.0000 N   0  0
   -2.5870   -3.7544    0.0000 C   0  0
   -2.5835   -5.2544    0.0000 C   0  0
   -3.8807   -6.0076    0.0000 C   0  0
   -5.1815   -5.2608    0.0000 C   0  0
   -5.1852   -3.7608    0.0000 C   0  0
   -3.8880   -3.0076    0.0000 C   0  0
   -6.4810   -6.0117    0.0000 N   0  0
   -7.7815   -5.2626    0.0000 C   0  0
   -9.0810   -6.0135    0.0000 C   0  0
  -10.3815   -5.2644    0.0000 C   0  0
  -14.2755   -7.5217    0.0000 O   0  0
  -14.2791   -6.0217    0.0000 C   0  0
  -12.9819   -5.2686    0.0000 C   0  0
  -11.6810   -6.0154    0.0000 N   0  0
  -11.6774   -7.5154    0.0000 C   0  0
  -12.9746   -8.2686    0.0000 C   0  0
   -3.9138   -2.4966    0.0000 O   0  0
    3.8942   -1.4964    0.0000 O   0  0
    4.9326   -0.8949    0.0000 C   0  0
  1  2  2  0
  2  3  1  0
  3  4  2  0
  4  5  1  0
  5  6  2  0
  6  7  1  0
  7  8  2  0
  8  9  1  0
  9 10  2  0
  1 10  1  0
  5 10  1  0
 11 12  2  0
  3 11  1  0
 14 15  1  0
 15 16  2  0
 16 17  1  0
 17 18  2  0
 18 19  1  0
 14 19  2  0
 21 22  1  0
 22 23  1  0
 20 21  1  0
 24 25  1  0
 25 26  1  0
 26 27  1  0
 27 28  1  0
 28 29  1  0
 24 29  1  0
 23 27  1  0
 17 20  1  0
 13 14  1  0
  4 13  1  0
 11 30  1  0
 31 32  1  0
  7 31  1  0
M  END
> <From> 
www.bindingDB.org

> <BindingDB Reactant_set_id>
50426757

> <Ligand InChI>
InChI=1S/C24H28N4O4/c1-31-19-7-8-22-20(15-19)23(21(16-26-22)24(29)30)27-18-5-3-17(4-6-18)25-9-2-10-28-11-13-32-14-12-28/h3-8,15-16,25H,2,9-14H2,1H3,(H,26,27)(H,29,30)

> <Ligand InChI Key>
ILIQEYWZNWIGTR-UHFFFAOYSA-N

> <BindingDB MonomerID>
50126181

> <BindingDB Ligand Name>
CHEMBL3628460

> <Target Name Assigned by Curator or DataSource>
DNA gyrase subunit B

> <Target Source Organism According to Curator or DataSource>


> <Ki (nM)>


> <IC50 (nM)>
 38920

> <Kd (nM)>


> <EC50 (nM)>


> <kon (M-1-s-1)>


> <koff (s-1)>


> <pH>


> <Temp C>


> <Curation/DataSource>
ChEMBL

> <Article DOI>
10.1016/j.ejmech.2015.06.032

> <PMID>
26318054

> <PubChem AID>


> <Patent Number>


> <Authors>
Medapi, B; Suryadevara, P; Renuka, J; Sridevi, JP; Yogeeswari, P; Sriram, D

> <Institution>
Birla Institute of Technology&amp;Science

> <Link to Ligand in BindingDB>
http://www.bindingdb.org/bind/chemsearch/marvin/MolStructure.jsp?monomerid=50126181

> <Link to Ligand-Target Pair in BindingDB>
http://www.bindingdb.org/jsp/dbsearch/PrimarySearch_ki.jsp?energyterm=kJ/mole&tag=pol&polymerid=50006452&target=DNA+gyrase+subunit+B&column=ki&startPg=0&Increment=50&submit=Search

> <Link to Ligand-Target Pair in BindingDB>
http://www.bindingdb.org/jsp/dbsearch/PrimarySearch_ki.jsp?energyterm=kJ/mole&tag=r21&monomerid=50126181&enzyme=DNA+gyrase+subunit+B&column=ki&startPg=0&Increment=50&submit=Search

> <Ligand HET ID in PDB>


> <PDB ID(s) for Ligand-Target Complex>


> <PubChem CID>
122193474

> <PubChem SID>
321902388

> <ChEBI ID of Ligand>


> <ChEMBL ID of Ligand>


> <DrugBank ID of Ligand>


> <IUPHAR_GRAC ID of Ligand>


> <KEGG ID of Ligand>


> <ZINC ID of Ligand>


> <Number of Protein Chains in Target (>1 implies a multichain complex)>
1

> <BindingDB Target Chain Sequence>
MAAQKNNAPKEYGADSITILEGLEAVRKRPGMYIGSTGERGLHHLIWEVVDNAVDEAMAGFATRVDVKIHADGSVEVRDDGRGIPVEMHATGMPTIDVVMTQLHAGGKFDGETYAVSGGLHGVGVSVVNALSTRLEATVLRDGYEWFQYYDRSVPGKLKQGGETKETGTTIRFWADPEIFETTDYNFETVARRLQEMAFLNKGLTIELTDERVTAEEVVDDVVKDTAEAPKTADEKAAEATGPSKVKHRVFHYPGGLVDYVKHINRTKTPIQQSIIDFDGKGPGHEVEIAMQWNAGYSESVHTFANTINTHEGGTHEEGFRAALTSVVNRYAKDKKLLKDKDPNLTGDDIREGLAAVISVKVAEPQFEGQTKTKLGNTEVKSFVQKICNEQLQHWFEANPAEAKTVVNKAVSSAQARIAARKARELVRRKSATDIGGLPGKLADCRSTDPSKSELYVVEGDSAGGSAKSGRDSMFQAILPLRGKIINVEKARIDRVLKNTEVQSIITALGTGIHDEFDISKLRYHKIVLMADADVDGQHISTLLLTLLFRFMKPLVENGHIFLAQPPLYKLKWQRSEPEFAYSDRERDGLLEAGRAAGKKINVDDGIQRYKGLGEMDAKELWETTMDPSVRVLRQVTLDDAAAADELFSILMGEDVEARRSFITRNAKDVRFLDV

> <PDB ID(s) of Target Chain>
4BAE

> <UniProt (SwissProt) Recommended Name of Target Chain>
DNA gyrase subunit B

> <UniProt (SwissProt) Entry Name of Target Chain>
GYRB_MYCSM

> <UniProt (SwissProt) Primary ID of Target Chain>
P0C559

> <UniProt (SwissProt) Secondary ID(s) of Target Chain>
P48355,Q59555

> <UniProt (SwissProt) Alternative ID(s) of Target Chain>


> <UniProt (TrEMBL) Submitted Name of Target Chain>


> <UniProt (TrEMBL) Entry Name of Target Chain>


> <UniProt (TrEMBL) Primary ID of Target Chain>


> <UniProt (TrEMBL) Secondary ID(s) of Target Chain>


> <UniProt (TrEMBL) Alternative ID(s) of Target Chain>


$$$$

  Mrv0541 04171609262D          

 31 34  0  0  0  0            999 V2000
   -1.4361    0.4117    0.0000 C   0  0  0  0  0  0  0  0  0  0  0  0
   -1.4361   -0.4117    0.0000 C   0  0  0  0  0  0  0  0  0  0  0  0
   -0.7130   -0.8235    0.0000 C   0  0  0  0  0  0  0  0  0  0  0  0
   -0.7130    0.8235    0.0000 C   0  0  0  0  0  0  0  0  0  0  0  0
    0.0000    0.4117    0.0000 C   0  0  0  0  0  0  0  0  0  0  0  0
    0.0000   -0.4117    0.0000 C   0  0  0  0  0  0  0  0  0  0  0  0
    0.7130   -0.8235    0.0000 N   0  0  0  0  0  0  0  0  0  0  0  0
    1.4261   -0.4117    0.0000 C   0  0  0  0  0  0  0  0  0  0  0  0
    1.4261    0.4117    0.0000 C   0  0  0  0  0  0  0  0  0  0  0  0
    0.7130    0.8235    0.0000 C   0  0  0  0  0  0  0  0  0  0  0  0
    0.7130    1.6489    0.0000 N   0  0  0  0  0  0  0  0  0  0  0  0
   -0.0008    2.0627    0.0000 C   0  0  0  0  0  0  0  0  0  0  0  0
    0.0006    2.8877    0.0000 C   0  0  0  0  0  0  0  0  0  0  0  0
    0.7158    3.2990    0.0000 C   0  0  0  0  0  0  0  0  0  0  0  0
    1.4296    2.8853    0.0000 C   0  0  0  0  0  0  0  0  0  0  0  0
    1.4282    2.0603    0.0000 C   0  0  0  0  0  0  0  0  0  0  0  0
    0.7188    4.1245    0.0000 N   0  0  0  0  0  0  0  0  0  0  0  0
    1.4350    4.5350    0.0000 C   0  0  0  0  0  0  0  0  0  0  0  0
    2.0054    4.2031    0.0000 S   0  0  0  0  0  0  0  0  0  0  0  0
    1.4380    5.3604    0.0000 N   0  0  0  0  0  0  0  0  0  0  0  0
    2.1541    5.7709    0.0000 C   0  0  0  0  0  0  0  0  0  0  0  0
    2.1584    6.5960    0.0000 C   0  0  0  0  0  0  0  0  0  0  0  0
    2.8750    7.0048    0.0000 C   0  0  0  0  0  0  0  0  0  0  0  0
    3.5873    6.5887    0.0000 C   0  0  0  0  0  0  0  0  0  0  0  0
    3.5831    5.7637    0.0000 C   0  0  0  0  0  0  0  0  0  0  0  0
    2.8666    5.3548    0.0000 C   0  0  0  0  0  0  0  0  0  0  0  0
    1.9977   -0.7417    0.0000 C   0  0  0  0  0  0  0  0  0  0  0  0
   -2.1508    0.8246    0.0000 C   0  0  0  0  0  0  0  0  0  0  0  0
   -2.7227    0.4950    0.0000 F   0  0  0  0  0  0  0  0  0  0  0  0
   -2.1506    1.4846    0.0000 F   0  0  0  0  0  0  0  0  0  0  0  0
   -2.7222    1.1549    0.0000 F   0  0  0  0  0  0  0  0  0  0  0  0
  1  2  4  0  0  0  0
  2  3  4  0  0  0  0
  3  6  4  0  0  0  0
  5  4  4  0  0  0  0
  4  1  4  0  0  0  0
  5  6  4  0  0  0  0
  6  7  4  0  0  0  0
  7  8  4  0  0  0  0
  8  9  4  0  0  0  0
  9 10  4  0  0  0  0
 10  5  4  0  0  0  0
 11 12  1  0  0  0  0
 11 16  1  0  0  0  0
 12 13  1  0  0  0  0
 13 14  1  0  0  0  0
 14 15  1  0  0  0  0
 15 16  1  0  0  0  0
 10 11  1  0  0  0  0
 14 17  1  0  0  0  0
 17 18  1  0  0  0  0
 18 19  2  0  0  0  0
 18 20  1  0  0  0  0
 20 21  1  0  0  0  0
 21 22  4  0  0  0  0
 22 23  4  0  0  0  0
 23 24  4  0  0  0  0
 24 25  4  0  0  0  0
 25 26  4  0  0  0  0
 26 21  4  0  0  0  0
  8 27  1  0  0  0  0
  1 28  1  0  0  0  0
 28 29  1  0  0  0  0
 28 30  1  0  0  0  0
 28 31  1  0  0  0  0
M  END
> <From> 
www.bindingDB.org

> <BindingDB Reactant_set_id>
50303826

> <Ligand InChI>
InChI=1S/C23H23F3N4S/c1-15-13-21(19-14-16(23(24,25)26)7-8-20(19)27-15)30-11-9-18(10-12-30)29-22(31)28-17-5-3-2-4-6-17/h2-8,13-14,18H,9-12H2,1H3,(H2,28,29,31)

> <Ligand InChI Key>
SGTFCDRLHSAMMQ-UHFFFAOYSA-N

> <BindingDB MonomerID>
50067163

> <BindingDB Ligand Name>
CHEMBL3403283

> <Target Name Assigned by Curator or DataSource>
DNA gyrase subunit B

> <Target Source Organism According to Curator or DataSource>


> <Ki (nM)>


> <IC50 (nM)>
 39040

> <Kd (nM)>


> <EC50 (nM)>


> <kon (M-1-s-1)>


> <koff (s-1)>


> <pH>


> <Temp C>


> <Curation/DataSource>
ChEMBL

> <Article DOI>
10.1016/j.bmc.2015.03.004

> <PMID>
25801151

> <PubChem AID>


> <Patent Number>


> <Authors>
Medapi, B; Renuka, J; Saxena, S; Sridevi, JP; Medishetti, R; Kulkarni, P; Yogeeswari, P; Sriram, D

> <Institution>
Birla Institute of Technology&amp; Science-Pilani

> <Link to Ligand in BindingDB>
http://www.bindingdb.org/bind/chemsearch/marvin/MolStructure.jsp?monomerid=50067163

> <Link to Ligand-Target Pair in BindingDB>
http://www.bindingdb.org/jsp/dbsearch/PrimarySearch_ki.jsp?energyterm=kJ/mole&tag=pol&polymerid=50006452&target=DNA+gyrase+subunit+B&column=ki&startPg=0&Increment=50&submit=Search

> <Link to Ligand-Target Pair in BindingDB>
http://www.bindingdb.org/jsp/dbsearch/PrimarySearch_ki.jsp?energyterm=kJ/mole&tag=r21&monomerid=50067163&enzyme=DNA+gyrase+subunit+B&column=ki&startPg=0&Increment=50&submit=Search

> <Ligand HET ID in PDB>


> <PDB ID(s) for Ligand-Target Complex>


> <PubChem CID>
118729700

> <PubChem SID>
313071792

> <ChEBI ID of Ligand>


> <ChEMBL ID of Ligand>


> <DrugBank ID of Ligand>


> <IUPHAR_GRAC ID of Ligand>


> <KEGG ID of Ligand>


> <ZINC ID of Ligand>


> <Number of Protein Chains in Target (>1 implies a multichain complex)>
1

> <BindingDB Target Chain Sequence>
MAAQKNNAPKEYGADSITILEGLEAVRKRPGMYIGSTGERGLHHLIWEVVDNAVDEAMAGFATRVDVKIHADGSVEVRDDGRGIPVEMHATGMPTIDVVMTQLHAGGKFDGETYAVSGGLHGVGVSVVNALSTRLEATVLRDGYEWFQYYDRSVPGKLKQGGETKETGTTIRFWADPEIFETTDYNFETVARRLQEMAFLNKGLTIELTDERVTAEEVVDDVVKDTAEAPKTADEKAAEATGPSKVKHRVFHYPGGLVDYVKHINRTKTPIQQSIIDFDGKGPGHEVEIAMQWNAGYSESVHTFANTINTHEGGTHEEGFRAALTSVVNRYAKDKKLLKDKDPNLTGDDIREGLAAVISVKVAEPQFEGQTKTKLGNTEVKSFVQKICNEQLQHWFEANPAEAKTVVNKAVSSAQARIAARKARELVRRKSATDIGGLPGKLADCRSTDPSKSELYVVEGDSAGGSAKSGRDSMFQAILPLRGKIINVEKARIDRVLKNTEVQSIITALGTGIHDEFDISKLRYHKIVLMADADVDGQHISTLLLTLLFRFMKPLVENGHIFLAQPPLYKLKWQRSEPEFAYSDRERDGLLEAGRAAGKKINVDDGIQRYKGLGEMDAKELWETTMDPSVRVLRQVTLDDAAAADELFSILMGEDVEARRSFITRNAKDVRFLDV

> <PDB ID(s) of Target Chain>
4BAE

> <UniProt (SwissProt) Recommended Name of Target Chain>
DNA gyrase subunit B

> <UniProt (SwissProt) Entry Name of Target Chain>
GYRB_MYCSM

> <UniProt (SwissProt) Primary ID of Target Chain>
P0C559

> <UniProt (SwissProt) Secondary ID(s) of Target Chain>
P48355,Q59555

> <UniProt (SwissProt) Alternative ID(s) of Target Chain>


> <UniProt (TrEMBL) Submitted Name of Target Chain>


> <UniProt (TrEMBL) Entry Name of Target Chain>


> <UniProt (TrEMBL) Primary ID of Target Chain>


> <UniProt (TrEMBL) Secondary ID(s) of Target Chain>


> <UniProt (TrEMBL) Alternative ID(s) of Target Chain>


$$$$

  Mrv0541 04171609262D          

 30 33  0  0  0  0            999 V2000
   -1.4361    0.4117    0.0000 C   0  0  0  0  0  0  0  0  0  0  0  0
   -1.4361   -0.4117    0.0000 C   0  0  0  0  0  0  0  0  0  0  0  0
   -0.7130   -0.8235    0.0000 C   0  0  0  0  0  0  0  0  0  0  0  0
   -0.7130    0.8235    0.0000 C   0  0  0  0  0  0  0  0  0  0  0  0
    0.0000    0.4117    0.0000 C   0  0  0  0  0  0  0  0  0  0  0  0
    0.0000   -0.4117    0.0000 C   0  0  0  0  0  0  0  0  0  0  0  0
    0.7130   -0.8235    0.0000 N   0  0  0  0  0  0  0  0  0  0  0  0
    1.4261   -0.4117    0.0000 C   0  0  0  0  0  0  0  0  0  0  0  0
    1.4261    0.4117    0.0000 C   0  0  0  0  0  0  0  0  0  0  0  0
    0.7130    0.8235    0.0000 C   0  0  0  0  0  0  0  0  0  0  0  0
    0.7130    1.6489    0.0000 N   0  0  0  0  0  0  0  0  0  0  0  0
   -0.0008    2.0627    0.0000 C   0  0  0  0  0  0  0  0  0  0  0  0
    0.0006    2.8877    0.0000 C   0  0  0  0  0  0  0  0  0  0  0  0
    0.7158    3.2990    0.0000 C   0  0  0  0  0  0  0  0  0  0  0  0
    1.4296    2.8853    0.0000 C   0  0  0  0  0  0  0  0  0  0  0  0
    1.4282    2.0603    0.0000 C   0  0  0  0  0  0  0  0  0  0  0  0
    0.7188    4.1245    0.0000 N   0  0  0  0  0  0  0  0  0  0  0  0
    1.4350    4.5350    0.0000 C   0  0  0  0  0  0  0  0  0  0  0  0
    2.0054    4.2031    0.0000 S   0  0  0  0  0  0  0  0  0  0  0  0
    1.4380    5.3604    0.0000 N   0  0  0  0  0  0  0  0  0  0  0  0
    2.1541    5.7709    0.0000 C   0  0  0  0  0  0  0  0  0  0  0  0
    2.1584    6.5960    0.0000 C   0  0  0  0  0  0  0  0  0  0  0  0
    2.8750    7.0048    0.0000 C   0  0  0  0  0  0  0  0  0  0  0  0
    3.5873    6.5887    0.0000 C   0  0  0  0  0  0  0  0  0  0  0  0
    3.5831    5.7637    0.0000 C   0  0  0  0  0  0  0  0  0  0  0  0
    2.8666    5.3548    0.0000 C   0  0  0  0  0  0  0  0  0  0  0  0
    1.9977   -0.7417    0.0000 C   0  0  0  0  0  0  0  0  0  0  0  0
    4.3051    6.9962    0.0000 O   0  0  0  0  0  0  0  0  0  0  0  0
    4.8746    6.6626    0.0000 C   0  0  0  0  0  0  0  0  0  0  0  0
   -2.0067    0.7434    0.0000 F   0  0  0  0  0  0  0  0  0  0  0  0
  1  2  4  0  0  0  0
  2  3  4  0  0  0  0
  3  6  4  0  0  0  0
  5  4  4  0  0  0  0
  4  1  4  0  0  0  0
  5  6  4  0  0  0  0
  6  7  4  0  0  0  0
  7  8  4  0  0  0  0
  8  9  4  0  0  0  0
  9 10  4  0  0  0  0
 10  5  4  0  0  0  0
 11 12  1  0  0  0  0
 11 16  1  0  0  0  0
 12 13  1  0  0  0  0
 13 14  1  0  0  0  0
 14 15  1  0  0  0  0
 15 16  1  0  0  0  0
 10 11  1  0  0  0  0
 14 17  1  0  0  0  0
 17 18  1  0  0  0  0
 18 19  2  0  0  0  0
 18 20  1  0  0  0  0
 20 21  1  0  0  0  0
 21 22  4  0  0  0  0
 22 23  4  0  0  0  0
 23 24  4  0  0  0  0
 24 25  4  0  0  0  0
 25 26  4  0  0  0  0
 26 21  4  0  0  0  0
  8 27  1  0  0  0  0
 24 28  1  0  0  0  0
 28 29  1  0  0  0  0
  1 30  1  0  0  0  0
M  END
> <From> 
www.bindingDB.org

> <BindingDB Reactant_set_id>
50303810

> <Ligand InChI>
InChI=1S/C23H25FN4OS/c1-15-13-22(20-14-16(24)3-8-21(20)25-15)28-11-9-18(10-12-28)27-23(30)26-17-4-6-19(29-2)7-5-17/h3-8,13-14,18H,9-12H2,1-2H3,(H2,26,27,30)

> <Ligand InChI Key>
XQHBAASMZZVCOX-UHFFFAOYSA-N

> <BindingDB MonomerID>
50067162

> <BindingDB Ligand Name>
CHEMBL3403282

> <Target Name Assigned by Curator or DataSource>
DNA gyrase subunit B

> <Target Source Organism According to Curator or DataSource>


> <Ki (nM)>


> <IC50 (nM)>
 39510

> <Kd (nM)>


> <EC50 (nM)>


> <kon (M-1-s-1)>


> <koff (s-1)>


> <pH>


> <Temp C>


> <Curation/DataSource>
ChEMBL

> <Article DOI>
10.1016/j.bmc.2015.03.004

> <PMID>
25801151

> <PubChem AID>


> <Patent Number>


> <Authors>
Medapi, B; Renuka, J; Saxena, S; Sridevi, JP; Medishetti, R; Kulkarni, P; Yogeeswari, P; Sriram, D

> <Institution>
Birla Institute of Technology&amp; Science-Pilani

> <Link to Ligand in BindingDB>
http://www.bindingdb.org/bind/chemsearch/marvin/MolStructure.jsp?monomerid=50067162

> <Link to Ligand-Target Pair in BindingDB>
http://www.bindingdb.org/jsp/dbsearch/PrimarySearch_ki.jsp?energyterm=kJ/mole&tag=pol&polymerid=50006452&target=DNA+gyrase+subunit+B&column=ki&startPg=0&Increment=50&submit=Search

> <Link to Ligand-Target Pair in BindingDB>
http://www.bindingdb.org/jsp/dbsearch/PrimarySearch_ki.jsp?energyterm=kJ/mole&tag=r21&monomerid=50067162&enzyme=DNA+gyrase+subunit+B&column=ki&startPg=0&Increment=50&submit=Search

> <Ligand HET ID in PDB>


> <PDB ID(s) for Ligand-Target Complex>


> <PubChem CID>
118729699

> <PubChem SID>
313045061

> <ChEBI ID of Ligand>


> <ChEMBL ID of Ligand>


> <DrugBank ID of Ligand>


> <IUPHAR_GRAC ID of Ligand>


> <KEGG ID of Ligand>


> <ZINC ID of Ligand>


> <Number of Protein Chains in Target (>1 implies a multichain complex)>
1

> <BindingDB Target Chain Sequence>
MAAQKNNAPKEYGADSITILEGLEAVRKRPGMYIGSTGERGLHHLIWEVVDNAVDEAMAGFATRVDVKIHADGSVEVRDDGRGIPVEMHATGMPTIDVVMTQLHAGGKFDGETYAVSGGLHGVGVSVVNALSTRLEATVLRDGYEWFQYYDRSVPGKLKQGGETKETGTTIRFWADPEIFETTDYNFETVARRLQEMAFLNKGLTIELTDERVTAEEVVDDVVKDTAEAPKTADEKAAEATGPSKVKHRVFHYPGGLVDYVKHINRTKTPIQQSIIDFDGKGPGHEVEIAMQWNAGYSESVHTFANTINTHEGGTHEEGFRAALTSVVNRYAKDKKLLKDKDPNLTGDDIREGLAAVISVKVAEPQFEGQTKTKLGNTEVKSFVQKICNEQLQHWFEANPAEAKTVVNKAVSSAQARIAARKARELVRRKSATDIGGLPGKLADCRSTDPSKSELYVVEGDSAGGSAKSGRDSMFQAILPLRGKIINVEKARIDRVLKNTEVQSIITALGTGIHDEFDISKLRYHKIVLMADADVDGQHISTLLLTLLFRFMKPLVENGHIFLAQPPLYKLKWQRSEPEFAYSDRERDGLLEAGRAAGKKINVDDGIQRYKGLGEMDAKELWETTMDPSVRVLRQVTLDDAAAADELFSILMGEDVEARRSFITRNAKDVRFLDV

> <PDB ID(s) of Target Chain>
4BAE

> <UniProt (SwissProt) Recommended Name of Target Chain>
DNA gyrase subunit B

> <UniProt (SwissProt) Entry Name of Target Chain>
GYRB_MYCSM

> <UniProt (SwissProt) Primary ID of Target Chain>
P0C559

> <UniProt (SwissProt) Secondary ID(s) of Target Chain>
P48355,Q59555

> <UniProt (SwissProt) Alternative ID(s) of Target Chain>


> <UniProt (TrEMBL) Submitted Name of Target Chain>


> <UniProt (TrEMBL) Entry Name of Target Chain>


> <UniProt (TrEMBL) Primary ID of Target Chain>


> <UniProt (TrEMBL) Secondary ID(s) of Target Chain>


> <UniProt (TrEMBL) Alternative ID(s) of Target Chain>


$$$$

  SciTegic12221715202D

 23 25  0  0  0  0            999 V2000
    8.8285   -6.3617    0.0000 N   0  0
    8.1242   -6.7714    0.0000 C   0  0
    8.1255   -7.5886    0.0000 C   0  0
    8.8311   -7.9961    0.0000 N   0  0
    9.5395   -7.5864    0.0000 C   0  0
    9.5383   -6.7692    0.0000 C   0  0
    8.8314   -5.5445    0.0000 C   0  0
    9.5357   -5.1348    0.0000 N   0  0
    8.1216   -5.1370    0.0000 S   0  0
    9.5344   -4.3176    0.0000 C   0  0
   10.2428   -3.9079    0.0000 C   0  0
    8.8350  -10.4477    0.0000 N   0  0
    9.5434  -10.0380    0.0000 C   0  0
    9.5421   -9.2208    0.0000 C   0  0
    8.8324   -8.8133    0.0000 C   0  0
    8.1281   -9.2230    0.0000 C   0  0
    7.4183   -8.8155    0.0000 C   0  0
    6.7099   -9.2211    0.0000 C   0  0
    6.7112  -10.0383    0.0000 C   0  0
    7.4209  -10.4499    0.0000 C   0  0
    8.1294  -10.0402    0.0000 C   0  0
    6.0027  -10.4480    0.0000 Cl  0  0
    8.8262   -3.9098    0.0000 C   0  0
  1  2  1  0
  2  3  1  0
  3  4  1  0
  4  5  1  0
  5  6  1  0
  1  6  1  0
  7  8  1  0
  7  9  2  0
  1  7  1  0
 10 11  1  0
  8 10  1  0
 12 13  2  0
 13 14  1  0
 14 15  2  0
 15 16  1  0
 16 17  2  0
 17 18  1  0
 18 19  2  0
 19 20  1  0
 20 21  2  0
 12 21  1  0
 16 21  1  0
 19 22  1  0
  4 15  1  0
 10 23  1  0
M  END
> <From> 
www.bindingDB.org

> <BindingDB Reactant_set_id>
50528060

> <Ligand InChI>
InChI=1S/C17H21ClN4S/c1-12(2)20-17(23)22-9-7-21(8-10-22)16-5-6-19-15-11-13(18)3-4-14(15)16/h3-6,11-12H,7-10H2,1-2H3,(H,20,23)

> <Ligand InChI Key>
SMKILLFWWVLWMB-UHFFFAOYSA-N

> <BindingDB MonomerID>
50202015

> <BindingDB Ligand Name>
CHEMBL3961399

> <Target Name Assigned by Curator or DataSource>
DNA gyrase subunit B

> <Target Source Organism According to Curator or DataSource>


> <Ki (nM)>


> <IC50 (nM)>
 40400

> <Kd (nM)>


> <EC50 (nM)>


> <kon (M-1-s-1)>


> <koff (s-1)>


> <pH>


> <Temp C>


> <Curation/DataSource>
ChEMBL

> <Article DOI>
10.1016/j.ejmech.2016.06.042

> <PMID>
27371925

> <PubChem AID>


> <Patent Number>


> <Authors>
Jeankumar, VU; Reshma, RS; Vats, R; Janupally, R; Saxena, S; Yogeeswari, P; Sriram, D

> <Institution>
Birla Institute of Technology&amp; Science-Pilani

> <Link to Ligand in BindingDB>
http://www.bindingdb.org/bind/chemsearch/marvin/MolStructure.jsp?monomerid=50202015

> <Link to Ligand-Target Pair in BindingDB>
http://www.bindingdb.org/jsp/dbsearch/PrimarySearch_ki.jsp?energyterm=kJ/mole&tag=pol&polymerid=50006452&target=DNA+gyrase+subunit+B&column=ki&startPg=0&Increment=50&submit=Search

> <Link to Ligand-Target Pair in BindingDB>
http://www.bindingdb.org/jsp/dbsearch/PrimarySearch_ki.jsp?energyterm=kJ/mole&tag=r21&monomerid=50202015&enzyme=DNA+gyrase+subunit+B&column=ki&startPg=0&Increment=50&submit=Search

> <Ligand HET ID in PDB>


> <PDB ID(s) for Ligand-Target Complex>


> <PubChem CID>
134155785

> <PubChem SID>
375979574

> <ChEBI ID of Ligand>


> <ChEMBL ID of Ligand>


> <DrugBank ID of Ligand>


> <IUPHAR_GRAC ID of Ligand>


> <KEGG ID of Ligand>


> <ZINC ID of Ligand>


> <Number of Protein Chains in Target (>1 implies a multichain complex)>
1

> <BindingDB Target Chain Sequence>
MAAQKNNAPKEYGADSITILEGLEAVRKRPGMYIGSTGERGLHHLIWEVVDNAVDEAMAGFATRVDVKIHADGSVEVRDDGRGIPVEMHATGMPTIDVVMTQLHAGGKFDGETYAVSGGLHGVGVSVVNALSTRLEATVLRDGYEWFQYYDRSVPGKLKQGGETKETGTTIRFWADPEIFETTDYNFETVARRLQEMAFLNKGLTIELTDERVTAEEVVDDVVKDTAEAPKTADEKAAEATGPSKVKHRVFHYPGGLVDYVKHINRTKTPIQQSIIDFDGKGPGHEVEIAMQWNAGYSESVHTFANTINTHEGGTHEEGFRAALTSVVNRYAKDKKLLKDKDPNLTGDDIREGLAAVISVKVAEPQFEGQTKTKLGNTEVKSFVQKICNEQLQHWFEANPAEAKTVVNKAVSSAQARIAARKARELVRRKSATDIGGLPGKLADCRSTDPSKSELYVVEGDSAGGSAKSGRDSMFQAILPLRGKIINVEKARIDRVLKNTEVQSIITALGTGIHDEFDISKLRYHKIVLMADADVDGQHISTLLLTLLFRFMKPLVENGHIFLAQPPLYKLKWQRSEPEFAYSDRERDGLLEAGRAAGKKINVDDGIQRYKGLGEMDAKELWETTMDPSVRVLRQVTLDDAAAADELFSILMGEDVEARRSFITRNAKDVRFLDV

> <PDB ID(s) of Target Chain>
4BAE

> <UniProt (SwissProt) Recommended Name of Target Chain>
DNA gyrase subunit B

> <UniProt (SwissProt) Entry Name of Target Chain>
GYRB_MYCSM

> <UniProt (SwissProt) Primary ID of Target Chain>
P0C559

> <UniProt (SwissProt) Secondary ID(s) of Target Chain>
P48355,Q59555

> <UniProt (SwissProt) Alternative ID(s) of Target Chain>


> <UniProt (TrEMBL) Submitted Name of Target Chain>


> <UniProt (TrEMBL) Entry Name of Target Chain>


> <UniProt (TrEMBL) Primary ID of Target Chain>


> <UniProt (TrEMBL) Secondary ID(s) of Target Chain>


> <UniProt (TrEMBL) Alternative ID(s) of Target Chain>


$$$$

  SciTegic12211720422D

 22 24  0  0  0  0            999 V2000
    8.8285   -6.3617    0.0000 N   0  0
    8.1242   -6.7714    0.0000 C   0  0
    8.1255   -7.5886    0.0000 C   0  0
    8.8311   -7.9961    0.0000 N   0  0
    9.5395   -7.5864    0.0000 C   0  0
    9.5383   -6.7692    0.0000 C   0  0
    8.8314   -5.5445    0.0000 C   0  0
    9.5357   -5.1348    0.0000 N   0  0
    8.1216   -5.1370    0.0000 S   0  0
    9.5344   -4.3176    0.0000 C   0  0
   10.2428   -3.9079    0.0000 C   0  0
    8.8350  -10.4477    0.0000 N   0  0
    9.5434  -10.0380    0.0000 C   0  0
    9.5421   -9.2208    0.0000 C   0  0
    8.8324   -8.8133    0.0000 C   0  0
    8.1281   -9.2230    0.0000 C   0  0
    7.4183   -8.8155    0.0000 C   0  0
    6.7099   -9.2211    0.0000 C   0  0
    6.7112  -10.0383    0.0000 C   0  0
    7.4209  -10.4499    0.0000 C   0  0
    8.1294  -10.0402    0.0000 C   0  0
    6.0027  -10.4480    0.0000 Cl  0  0
  1  2  1  0
  2  3  1  0
  3  4  1  0
  4  5  1  0
  5  6  1  0
  1  6  1  0
  7  8  1  0
  7  9  2  0
  1  7  1  0
 10 11  1  0
  8 10  1  0
 12 13  2  0
 13 14  1  0
 14 15  2  0
 15 16  1  0
 16 17  2  0
 17 18  1  0
 18 19  2  0
 19 20  1  0
 20 21  2  0
 12 21  1  0
 16 21  1  0
 19 22  1  0
  4 15  1  0
M  END
> <From> 
www.bindingDB.org

> <BindingDB Reactant_set_id>
50528090

> <Ligand InChI>
InChI=1S/C16H19ClN4S/c1-2-18-16(22)21-9-7-20(8-10-21)15-5-6-19-14-11-12(17)3-4-13(14)15/h3-6,11H,2,7-10H2,1H3,(H,18,22)

> <Ligand InChI Key>
XQKNIWXQWBHDMQ-UHFFFAOYSA-N

> <BindingDB MonomerID>
50202236

> <BindingDB Ligand Name>
CHEMBL3933913

> <Target Name Assigned by Curator or DataSource>
DNA gyrase subunit B

> <Target Source Organism According to Curator or DataSource>


> <Ki (nM)>


> <IC50 (nM)>
 40600

> <Kd (nM)>


> <EC50 (nM)>


> <kon (M-1-s-1)>


> <koff (s-1)>


> <pH>


> <Temp C>


> <Curation/DataSource>
ChEMBL

> <Article DOI>
10.1016/j.ejmech.2016.06.042

> <PMID>
27371925

> <PubChem AID>


> <Patent Number>


> <Authors>
Jeankumar, VU; Reshma, RS; Vats, R; Janupally, R; Saxena, S; Yogeeswari, P; Sriram, D

> <Institution>
Birla Institute of Technology&amp; Science-Pilani

> <Link to Ligand in BindingDB>
http://www.bindingdb.org/bind/chemsearch/marvin/MolStructure.jsp?monomerid=50202236

> <Link to Ligand-Target Pair in BindingDB>
http://www.bindingdb.org/jsp/dbsearch/PrimarySearch_ki.jsp?energyterm=kJ/mole&tag=pol&polymerid=50006452&target=DNA+gyrase+subunit+B&column=ki&startPg=0&Increment=50&submit=Search

> <Link to Ligand-Target Pair in BindingDB>
http://www.bindingdb.org/jsp/dbsearch/PrimarySearch_ki.jsp?energyterm=kJ/mole&tag=r21&monomerid=50202236&enzyme=DNA+gyrase+subunit+B&column=ki&startPg=0&Increment=50&submit=Search

> <Ligand HET ID in PDB>


> <PDB ID(s) for Ligand-Target Complex>


> <PubChem CID>
134137670

> <PubChem SID>
375979600

> <ChEBI ID of Ligand>


> <ChEMBL ID of Ligand>


> <DrugBank ID of Ligand>


> <IUPHAR_GRAC ID of Ligand>


> <KEGG ID of Ligand>


> <ZINC ID of Ligand>


> <Number of Protein Chains in Target (>1 implies a multichain complex)>
1

> <BindingDB Target Chain Sequence>
MAAQKNNAPKEYGADSITILEGLEAVRKRPGMYIGSTGERGLHHLIWEVVDNAVDEAMAGFATRVDVKIHADGSVEVRDDGRGIPVEMHATGMPTIDVVMTQLHAGGKFDGETYAVSGGLHGVGVSVVNALSTRLEATVLRDGYEWFQYYDRSVPGKLKQGGETKETGTTIRFWADPEIFETTDYNFETVARRLQEMAFLNKGLTIELTDERVTAEEVVDDVVKDTAEAPKTADEKAAEATGPSKVKHRVFHYPGGLVDYVKHINRTKTPIQQSIIDFDGKGPGHEVEIAMQWNAGYSESVHTFANTINTHEGGTHEEGFRAALTSVVNRYAKDKKLLKDKDPNLTGDDIREGLAAVISVKVAEPQFEGQTKTKLGNTEVKSFVQKICNEQLQHWFEANPAEAKTVVNKAVSSAQARIAARKARELVRRKSATDIGGLPGKLADCRSTDPSKSELYVVEGDSAGGSAKSGRDSMFQAILPLRGKIINVEKARIDRVLKNTEVQSIITALGTGIHDEFDISKLRYHKIVLMADADVDGQHISTLLLTLLFRFMKPLVENGHIFLAQPPLYKLKWQRSEPEFAYSDRERDGLLEAGRAAGKKINVDDGIQRYKGLGEMDAKELWETTMDPSVRVLRQVTLDDAAAADELFSILMGEDVEARRSFITRNAKDVRFLDV

> <PDB ID(s) of Target Chain>
4BAE

> <UniProt (SwissProt) Recommended Name of Target Chain>
DNA gyrase subunit B

> <UniProt (SwissProt) Entry Name of Target Chain>
GYRB_MYCSM

> <UniProt (SwissProt) Primary ID of Target Chain>
P0C559

> <UniProt (SwissProt) Secondary ID(s) of Target Chain>
P48355,Q59555

> <UniProt (SwissProt) Alternative ID(s) of Target Chain>


> <UniProt (TrEMBL) Submitted Name of Target Chain>


> <UniProt (TrEMBL) Entry Name of Target Chain>


> <UniProt (TrEMBL) Primary ID of Target Chain>


> <UniProt (TrEMBL) Secondary ID(s) of Target Chain>


> <UniProt (TrEMBL) Alternative ID(s) of Target Chain>


$$$$

  Mrv0541 11171616332D          

 26 28  0  0  0  0            999 V2000
   13.2489   -7.7008    0.0000 O   0  0  0  0  0  0  0  0  0  0  0  0
   13.7338   -7.0334    0.0000 C   0  0  0  0  0  0  0  0  0  0  0  0
   13.2489   -6.3660    0.0000 C   0  0  0  0  0  0  0  0  0  0  0  0
   12.4643   -6.6209    0.0000 C   0  0  0  0  0  0  0  0  0  0  0  0
   12.4643   -7.4459    0.0000 C   0  0  0  0  0  0  0  0  0  0  0  0
   11.7498   -6.2084    0.0000 C   0  0  0  0  0  0  0  0  0  0  0  0
   11.0352   -6.6209    0.0000 C   0  0  0  0  0  0  0  0  0  0  0  0
   11.0352   -7.4459    0.0000 C   0  0  0  0  0  0  0  0  0  0  0  0
   11.7498   -7.8584    0.0000 C   0  0  0  0  0  0  0  0  0  0  0  0
   14.5588   -7.0334    0.0000 C   0  0  0  0  0  0  0  0  0  0  0  0
   14.9713   -7.7479    0.0000 O   0  0  0  0  0  0  0  0  0  0  0  0
   14.9713   -6.3189    0.0000 O   0  0  0  0  0  0  0  0  0  0  0  0
   10.3208   -6.2084    0.0000 N   0  0  0  0  0  0  0  0  0  0  0  0
    9.6063   -6.6209    0.0000 C   0  0  0  0  0  0  0  0  0  0  0  0
    8.8918   -6.2084    0.0000 C   0  0  0  0  0  0  0  0  0  0  0  0
    8.8918   -5.3834    0.0000 N   0  0  0  0  0  0  0  0  0  0  0  0
    9.6063   -4.9709    0.0000 C   0  0  0  0  0  0  0  0  0  0  0  0
   10.3208   -5.3834    0.0000 C   0  0  0  0  0  0  0  0  0  0  0  0
    8.1774   -4.9709    0.0000 C   0  0  0  0  0  0  0  0  0  0  0  0
    8.1774   -4.1459    0.0000 O   0  0  0  0  0  0  0  0  0  0  0  0
    7.4629   -5.3834    0.0000 C   0  0  0  0  0  0  0  0  0  0  0  0
    6.7484   -4.9709    0.0000 C   0  0  0  0  0  0  0  0  0  0  0  0
    6.0339   -5.3834    0.0000 C   0  0  0  0  0  0  0  0  0  0  0  0
    6.7484   -4.1459    0.0000 C   0  0  0  0  0  0  0  0  0  0  0  0
   15.7963   -6.3189    0.0000 C   0  0  0  0  0  0  0  0  0  0  0  0
   16.2088   -5.6045    0.0000 C   0  0  0  0  0  0  0  0  0  0  0  0
  1  2  4  0  0  0  0
  2  3  4  0  0  0  0
  3  4  4  0  0  0  0
  4  5  4  0  0  0  0
  1  5  4  0  0  0  0
  6  7  4  0  0  0  0
  7  8  4  0  0  0  0
  8  9  4  0  0  0  0
  5  9  4  0  0  0  0
  4  6  4  0  0  0  0
 10 11  2  0  0  0  0
 10 12  1  0  0  0  0
  2 10  1  0  0  0  0
 13 14  1  0  0  0  0
 14 15  1  0  0  0  0
 15 16  1  0  0  0  0
 16 17  1  0  0  0  0
 17 18  1  0  0  0  0
 13 18  1  0  0  0  0
 19 20  2  0  0  0  0
 19 21  1  0  0  0  0
 21 22  1  0  0  0  0
 22 23  1  0  0  0  0
 22 24  1  0  0  0  0
 16 19  1  0  0  0  0
  7 13  1  0  0  0  0
 25 26  1  0  0  0  0
 12 25  1  0  0  0  0
M  END
> <From> 
www.bindingDB.org

> <BindingDB Reactant_set_id>
50369851

> <Ligand InChI>
InChI=1S/C20H26N2O4/c1-4-25-20(24)18-13-15-12-16(5-6-17(15)26-18)21-7-9-22(10-8-21)19(23)11-14(2)3/h5-6,12-14H,4,7-11H2,1-3H3

> <Ligand InChI Key>
NLIHJTXJPKRUIC-UHFFFAOYSA-N

> <BindingDB MonomerID>
50100636

> <BindingDB Ligand Name>
CHEMBL3323256

> <Target Name Assigned by Curator or DataSource>
DNA gyrase subunit B

> <Target Source Organism According to Curator or DataSource>


> <Ki (nM)>


> <IC50 (nM)>
 41100

> <Kd (nM)>


> <EC50 (nM)>


> <kon (M-1-s-1)>


> <koff (s-1)>


> <pH>


> <Temp C>


> <Curation/DataSource>
ChEMBL

> <Article DOI>
10.1016/j.bmc.2014.06.041

> <PMID>
25129171

> <PubChem AID>


> <Patent Number>


> <Authors>
Renuka, J; Reddy, KI; Srihari, K; Jeankumar, VU; Shravan, M; Sridevi, JP; Yogeeswari, P; Babu, KS; Sriram, D

> <Institution>
Institute of Technology&amp; Science-Pilani

> <Link to Ligand in BindingDB>
http://www.bindingdb.org/bind/chemsearch/marvin/MolStructure.jsp?monomerid=50100636

> <Link to Ligand-Target Pair in BindingDB>
http://www.bindingdb.org/jsp/dbsearch/PrimarySearch_ki.jsp?energyterm=kJ/mole&tag=pol&polymerid=50006452&target=DNA+gyrase+subunit+B&column=ki&startPg=0&Increment=50&submit=Search

> <Link to Ligand-Target Pair in BindingDB>
http://www.bindingdb.org/jsp/dbsearch/PrimarySearch_ki.jsp?energyterm=kJ/mole&tag=r21&monomerid=50100636&enzyme=DNA+gyrase+subunit+B&column=ki&startPg=0&Increment=50&submit=Search

> <Ligand HET ID in PDB>


> <PDB ID(s) for Ligand-Target Complex>


> <PubChem CID>
118710637

> <PubChem SID>
318490745

> <ChEBI ID of Ligand>


> <ChEMBL ID of Ligand>


> <DrugBank ID of Ligand>


> <IUPHAR_GRAC ID of Ligand>


> <KEGG ID of Ligand>


> <ZINC ID of Ligand>


> <Number of Protein Chains in Target (>1 implies a multichain complex)>
1

> <BindingDB Target Chain Sequence>
MAAQKNNAPKEYGADSITILEGLEAVRKRPGMYIGSTGERGLHHLIWEVVDNAVDEAMAGFATRVDVKIHADGSVEVRDDGRGIPVEMHATGMPTIDVVMTQLHAGGKFDGETYAVSGGLHGVGVSVVNALSTRLEATVLRDGYEWFQYYDRSVPGKLKQGGETKETGTTIRFWADPEIFETTDYNFETVARRLQEMAFLNKGLTIELTDERVTAEEVVDDVVKDTAEAPKTADEKAAEATGPSKVKHRVFHYPGGLVDYVKHINRTKTPIQQSIIDFDGKGPGHEVEIAMQWNAGYSESVHTFANTINTHEGGTHEEGFRAALTSVVNRYAKDKKLLKDKDPNLTGDDIREGLAAVISVKVAEPQFEGQTKTKLGNTEVKSFVQKICNEQLQHWFEANPAEAKTVVNKAVSSAQARIAARKARELVRRKSATDIGGLPGKLADCRSTDPSKSELYVVEGDSAGGSAKSGRDSMFQAILPLRGKIINVEKARIDRVLKNTEVQSIITALGTGIHDEFDISKLRYHKIVLMADADVDGQHISTLLLTLLFRFMKPLVENGHIFLAQPPLYKLKWQRSEPEFAYSDRERDGLLEAGRAAGKKINVDDGIQRYKGLGEMDAKELWETTMDPSVRVLRQVTLDDAAAADELFSILMGEDVEARRSFITRNAKDVRFLDV

> <PDB ID(s) of Target Chain>
4BAE

> <UniProt (SwissProt) Recommended Name of Target Chain>
DNA gyrase subunit B

> <UniProt (SwissProt) Entry Name of Target Chain>
GYRB_MYCSM

> <UniProt (SwissProt) Primary ID of Target Chain>
P0C559

> <UniProt (SwissProt) Secondary ID(s) of Target Chain>
P48355,Q59555

> <UniProt (SwissProt) Alternative ID(s) of Target Chain>


> <UniProt (TrEMBL) Submitted Name of Target Chain>


> <UniProt (TrEMBL) Entry Name of Target Chain>


> <UniProt (TrEMBL) Primary ID of Target Chain>


> <UniProt (TrEMBL) Secondary ID(s) of Target Chain>


> <UniProt (TrEMBL) Alternative ID(s) of Target Chain>


$$$$

  Mrv0541 04171609262D          

 29 32  0  0  0  0            999 V2000
   -1.4361    0.4117    0.0000 C   0  0  0  0  0  0  0  0  0  0  0  0
   -1.4361   -0.4117    0.0000 C   0  0  0  0  0  0  0  0  0  0  0  0
   -0.7130   -0.8235    0.0000 C   0  0  0  0  0  0  0  0  0  0  0  0
   -0.7130    0.8235    0.0000 C   0  0  0  0  0  0  0  0  0  0  0  0
    0.0000    0.4117    0.0000 C   0  0  0  0  0  0  0  0  0  0  0  0
    0.0000   -0.4117    0.0000 C   0  0  0  0  0  0  0  0  0  0  0  0
    0.7130   -0.8235    0.0000 N   0  0  0  0  0  0  0  0  0  0  0  0
    1.4261   -0.4117    0.0000 C   0  0  0  0  0  0  0  0  0  0  0  0
    1.4261    0.4117    0.0000 C   0  0  0  0  0  0  0  0  0  0  0  0
    0.7130    0.8235    0.0000 C   0  0  0  0  0  0  0  0  0  0  0  0
    0.7130    1.6489    0.0000 N   0  0  0  0  0  0  0  0  0  0  0  0
   -0.0008    2.0627    0.0000 C   0  0  0  0  0  0  0  0  0  0  0  0
    0.0006    2.8877    0.0000 C   0  0  0  0  0  0  0  0  0  0  0  0
    0.7158    3.2990    0.0000 C   0  0  0  0  0  0  0  0  0  0  0  0
    1.4296    2.8853    0.0000 C   0  0  0  0  0  0  0  0  0  0  0  0
    1.4282    2.0603    0.0000 C   0  0  0  0  0  0  0  0  0  0  0  0
    0.7188    4.1245    0.0000 N   0  0  0  0  0  0  0  0  0  0  0  0
    1.4350    4.5350    0.0000 C   0  0  0  0  0  0  0  0  0  0  0  0
    2.0054    4.2031    0.0000 S   0  0  0  0  0  0  0  0  0  0  0  0
    1.4380    5.3604    0.0000 N   0  0  0  0  0  0  0  0  0  0  0  0
    2.1541    5.7709    0.0000 C   0  0  0  0  0  0  0  0  0  0  0  0
    2.1584    6.5960    0.0000 C   0  0  0  0  0  0  0  0  0  0  0  0
    2.8750    7.0048    0.0000 C   0  0  0  0  0  0  0  0  0  0  0  0
    3.5873    6.5887    0.0000 C   0  0  0  0  0  0  0  0  0  0  0  0
    3.5831    5.7637    0.0000 C   0  0  0  0  0  0  0  0  0  0  0  0
    2.8666    5.3548    0.0000 C   0  0  0  0  0  0  0  0  0  0  0  0
    1.9977   -0.7417    0.0000 C   0  0  0  0  0  0  0  0  0  0  0  0
    4.1606    6.9157    0.0000 Cl  0  0  0  0  0  0  0  0  0  0  0  0
   -2.0067    0.7434    0.0000 F   0  0  0  0  0  0  0  0  0  0  0  0
  1  2  4  0  0  0  0
  2  3  4  0  0  0  0
  3  6  4  0  0  0  0
  5  4  4  0  0  0  0
  4  1  4  0  0  0  0
  5  6  4  0  0  0  0
  6  7  4  0  0  0  0
  7  8  4  0  0  0  0
  8  9  4  0  0  0  0
  9 10  4  0  0  0  0
 10  5  4  0  0  0  0
 11 12  1  0  0  0  0
 11 16  1  0  0  0  0
 12 13  1  0  0  0  0
 13 14  1  0  0  0  0
 14 15  1  0  0  0  0
 15 16  1  0  0  0  0
 10 11  1  0  0  0  0
 14 17  1  0  0  0  0
 17 18  1  0  0  0  0
 18 19  2  0  0  0  0
 18 20  1  0  0  0  0
 20 21  1  0  0  0  0
 21 22  4  0  0  0  0
 22 23  4  0  0  0  0
 23 24  4  0  0  0  0
 24 25  4  0  0  0  0
 25 26  4  0  0  0  0
 26 21  4  0  0  0  0
  8 27  1  0  0  0  0
 24 28  1  0  0  0  0
  1 29  1  0  0  0  0
M  END
> <From> 
www.bindingDB.org

> <BindingDB Reactant_set_id>
50303828

> <Ligand InChI>
InChI=1S/C22H22ClFN4S/c1-14-12-21(19-13-16(24)4-7-20(19)25-14)28-10-8-18(9-11-28)27-22(29)26-17-5-2-15(23)3-6-17/h2-7,12-13,18H,8-11H2,1H3,(H2,26,27,29)

> <Ligand InChI Key>
GMGNLGRMRLSFQX-UHFFFAOYSA-N

> <BindingDB MonomerID>
50067159

> <BindingDB Ligand Name>
CHEMBL3403280

> <Target Name Assigned by Curator or DataSource>
DNA gyrase subunit B

> <Target Source Organism According to Curator or DataSource>


> <Ki (nM)>


> <IC50 (nM)>
 41100

> <Kd (nM)>


> <EC50 (nM)>


> <kon (M-1-s-1)>


> <koff (s-1)>


> <pH>


> <Temp C>


> <Curation/DataSource>
ChEMBL

> <Article DOI>
10.1016/j.bmc.2015.03.004

> <PMID>
25801151

> <PubChem AID>


> <Patent Number>


> <Authors>
Medapi, B; Renuka, J; Saxena, S; Sridevi, JP; Medishetti, R; Kulkarni, P; Yogeeswari, P; Sriram, D

> <Institution>
Birla Institute of Technology&amp; Science-Pilani

> <Link to Ligand in BindingDB>
http://www.bindingdb.org/bind/chemsearch/marvin/MolStructure.jsp?monomerid=50067159

> <Link to Ligand-Target Pair in BindingDB>
http://www.bindingdb.org/jsp/dbsearch/PrimarySearch_ki.jsp?energyterm=kJ/mole&tag=pol&polymerid=50006452&target=DNA+gyrase+subunit+B&column=ki&startPg=0&Increment=50&submit=Search

> <Link to Ligand-Target Pair in BindingDB>
http://www.bindingdb.org/jsp/dbsearch/PrimarySearch_ki.jsp?energyterm=kJ/mole&tag=r21&monomerid=50067159&enzyme=DNA+gyrase+subunit+B&column=ki&startPg=0&Increment=50&submit=Search

> <Ligand HET ID in PDB>


> <PDB ID(s) for Ligand-Target Complex>


> <PubChem CID>
118729696

> <PubChem SID>
313071789

> <ChEBI ID of Ligand>


> <ChEMBL ID of Ligand>


> <DrugBank ID of Ligand>


> <IUPHAR_GRAC ID of Ligand>


> <KEGG ID of Ligand>


> <ZINC ID of Ligand>


> <Number of Protein Chains in Target (>1 implies a multichain complex)>
1

> <BindingDB Target Chain Sequence>
MAAQKNNAPKEYGADSITILEGLEAVRKRPGMYIGSTGERGLHHLIWEVVDNAVDEAMAGFATRVDVKIHADGSVEVRDDGRGIPVEMHATGMPTIDVVMTQLHAGGKFDGETYAVSGGLHGVGVSVVNALSTRLEATVLRDGYEWFQYYDRSVPGKLKQGGETKETGTTIRFWADPEIFETTDYNFETVARRLQEMAFLNKGLTIELTDERVTAEEVVDDVVKDTAEAPKTADEKAAEATGPSKVKHRVFHYPGGLVDYVKHINRTKTPIQQSIIDFDGKGPGHEVEIAMQWNAGYSESVHTFANTINTHEGGTHEEGFRAALTSVVNRYAKDKKLLKDKDPNLTGDDIREGLAAVISVKVAEPQFEGQTKTKLGNTEVKSFVQKICNEQLQHWFEANPAEAKTVVNKAVSSAQARIAARKARELVRRKSATDIGGLPGKLADCRSTDPSKSELYVVEGDSAGGSAKSGRDSMFQAILPLRGKIINVEKARIDRVLKNTEVQSIITALGTGIHDEFDISKLRYHKIVLMADADVDGQHISTLLLTLLFRFMKPLVENGHIFLAQPPLYKLKWQRSEPEFAYSDRERDGLLEAGRAAGKKINVDDGIQRYKGLGEMDAKELWETTMDPSVRVLRQVTLDDAAAADELFSILMGEDVEARRSFITRNAKDVRFLDV

> <PDB ID(s) of Target Chain>
4BAE

> <UniProt (SwissProt) Recommended Name of Target Chain>
DNA gyrase subunit B

> <UniProt (SwissProt) Entry Name of Target Chain>
GYRB_MYCSM

> <UniProt (SwissProt) Primary ID of Target Chain>
P0C559

> <UniProt (SwissProt) Secondary ID(s) of Target Chain>
P48355,Q59555

> <UniProt (SwissProt) Alternative ID(s) of Target Chain>


> <UniProt (TrEMBL) Submitted Name of Target Chain>


> <UniProt (TrEMBL) Entry Name of Target Chain>


> <UniProt (TrEMBL) Primary ID of Target Chain>


> <UniProt (TrEMBL) Secondary ID(s) of Target Chain>


> <UniProt (TrEMBL) Alternative ID(s) of Target Chain>


$$$$

  Mrv0541 04171609262D          

 33 36  0  0  0  0            999 V2000
   -1.4361    0.4117    0.0000 C   0  0  0  0  0  0  0  0  0  0  0  0
   -1.4361   -0.4117    0.0000 C   0  0  0  0  0  0  0  0  0  0  0  0
   -0.7130   -0.8235    0.0000 C   0  0  0  0  0  0  0  0  0  0  0  0
   -0.7130    0.8235    0.0000 C   0  0  0  0  0  0  0  0  0  0  0  0
    0.0000    0.4117    0.0000 C   0  0  0  0  0  0  0  0  0  0  0  0
    0.0000   -0.4117    0.0000 C   0  0  0  0  0  0  0  0  0  0  0  0
    0.7130   -0.8235    0.0000 N   0  0  0  0  0  0  0  0  0  0  0  0
    1.4261   -0.4117    0.0000 C   0  0  0  0  0  0  0  0  0  0  0  0
    1.4261    0.4117    0.0000 C   0  0  0  0  0  0  0  0  0  0  0  0
    0.7130    0.8235    0.0000 C   0  0  0  0  0  0  0  0  0  0  0  0
    0.7130    1.6489    0.0000 N   0  0  0  0  0  0  0  0  0  0  0  0
   -0.0008    2.0627    0.0000 C   0  0  0  0  0  0  0  0  0  0  0  0
    0.0006    2.8877    0.0000 C   0  0  0  0  0  0  0  0  0  0  0  0
    0.7158    3.2990    0.0000 C   0  0  0  0  0  0  0  0  0  0  0  0
    1.4296    2.8853    0.0000 C   0  0  0  0  0  0  0  0  0  0  0  0
    1.4282    2.0603    0.0000 C   0  0  0  0  0  0  0  0  0  0  0  0
    0.7188    4.1245    0.0000 N   0  0  0  0  0  0  0  0  0  0  0  0
    1.4350    4.5350    0.0000 C   0  0  0  0  0  0  0  0  0  0  0  0
    2.0054    4.2031    0.0000 O   0  0  0  0  0  0  0  0  0  0  0  0
    1.4380    5.3604    0.0000 N   0  0  0  0  0  0  0  0  0  0  0  0
    2.1541    5.7709    0.0000 C   0  0  0  0  0  0  0  0  0  0  0  0
    2.1584    6.5960    0.0000 C   0  0  0  0  0  0  0  0  0  0  0  0
    2.8750    7.0048    0.0000 C   0  0  0  0  0  0  0  0  0  0  0  0
    3.5873    6.5887    0.0000 C   0  0  0  0  0  0  0  0  0  0  0  0
    3.5831    5.7637    0.0000 C   0  0  0  0  0  0  0  0  0  0  0  0
    2.8666    5.3548    0.0000 C   0  0  0  0  0  0  0  0  0  0  0  0
    1.9977   -0.7417    0.0000 C   0  0  0  0  0  0  0  0  0  0  0  0
   -2.1508    0.8246    0.0000 C   0  0  0  0  0  0  0  0  0  0  0  0
   -2.7227    0.4950    0.0000 F   0  0  0  0  0  0  0  0  0  0  0  0
   -2.1506    1.4846    0.0000 F   0  0  0  0  0  0  0  0  0  0  0  0
   -2.7222    1.1549    0.0000 F   0  0  0  0  0  0  0  0  0  0  0  0
    4.3051    6.9962    0.0000 O   0  0  0  0  0  0  0  0  0  0  0  0
    4.8746    6.6626    0.0000 C   0  0  0  0  0  0  0  0  0  0  0  0
  1  2  4  0  0  0  0
  2  3  4  0  0  0  0
  3  6  4  0  0  0  0
  5  4  4  0  0  0  0
  4  1  4  0  0  0  0
  5  6  4  0  0  0  0
  6  7  4  0  0  0  0
  7  8  4  0  0  0  0
  8  9  4  0  0  0  0
  9 10  4  0  0  0  0
 10  5  4  0  0  0  0
 11 12  1  0  0  0  0
 11 16  1  0  0  0  0
 12 13  1  0  0  0  0
 13 14  1  0  0  0  0
 14 15  1  0  0  0  0
 15 16  1  0  0  0  0
 10 11  1  0  0  0  0
 14 17  1  0  0  0  0
 17 18  1  0  0  0  0
 18 19  2  0  0  0  0
 18 20  1  0  0  0  0
 20 21  1  0  0  0  0
 21 22  4  0  0  0  0
 22 23  4  0  0  0  0
 23 24  4  0  0  0  0
 24 25  4  0  0  0  0
 25 26  4  0  0  0  0
 26 21  4  0  0  0  0
  8 27  1  0  0  0  0
  1 28  1  0  0  0  0
 28 29  1  0  0  0  0
 28 30  1  0  0  0  0
 28 31  1  0  0  0  0
 24 32  1  0  0  0  0
 32 33  1  0  0  0  0
M  END
> <From> 
www.bindingDB.org

> <BindingDB Reactant_set_id>
50303844

> <Ligand InChI>
InChI=1S/C24H25F3N4O2/c1-15-13-22(20-14-16(24(25,26)27)3-8-21(20)28-15)31-11-9-18(10-12-31)30-23(32)29-17-4-6-19(33-2)7-5-17/h3-8,13-14,18H,9-12H2,1-2H3,(H2,29,30,32)

> <Ligand InChI Key>
PIJSPDMZWBZWEK-UHFFFAOYSA-N

> <BindingDB MonomerID>
50067144

> <BindingDB Ligand Name>
CHEMBL3403265

> <Target Name Assigned by Curator or DataSource>
DNA gyrase subunit B

> <Target Source Organism According to Curator or DataSource>


> <Ki (nM)>


> <IC50 (nM)>
 41200

> <Kd (nM)>


> <EC50 (nM)>


> <kon (M-1-s-1)>


> <koff (s-1)>


> <pH>


> <Temp C>


> <Curation/DataSource>
ChEMBL

> <Article DOI>
10.1016/j.bmc.2015.03.004

> <PMID>
25801151

> <PubChem AID>


> <Patent Number>


> <Authors>
Medapi, B; Renuka, J; Saxena, S; Sridevi, JP; Medishetti, R; Kulkarni, P; Yogeeswari, P; Sriram, D

> <Institution>
Birla Institute of Technology&amp; Science-Pilani

> <Link to Ligand in BindingDB>
http://www.bindingdb.org/bind/chemsearch/marvin/MolStructure.jsp?monomerid=50067144

> <Link to Ligand-Target Pair in BindingDB>
http://www.bindingdb.org/jsp/dbsearch/PrimarySearch_ki.jsp?energyterm=kJ/mole&tag=pol&polymerid=50006452&target=DNA+gyrase+subunit+B&column=ki&startPg=0&Increment=50&submit=Search

> <Link to Ligand-Target Pair in BindingDB>
http://www.bindingdb.org/jsp/dbsearch/PrimarySearch_ki.jsp?energyterm=kJ/mole&tag=r21&monomerid=50067144&enzyme=DNA+gyrase+subunit+B&column=ki&startPg=0&Increment=50&submit=Search

> <Ligand HET ID in PDB>


> <PDB ID(s) for Ligand-Target Complex>


> <PubChem CID>
118729681

> <PubChem SID>
313071775

> <ChEBI ID of Ligand>


> <ChEMBL ID of Ligand>


> <DrugBank ID of Ligand>


> <IUPHAR_GRAC ID of Ligand>


> <KEGG ID of Ligand>


> <ZINC ID of Ligand>


> <Number of Protein Chains in Target (>1 implies a multichain complex)>
1

> <BindingDB Target Chain Sequence>
MAAQKNNAPKEYGADSITILEGLEAVRKRPGMYIGSTGERGLHHLIWEVVDNAVDEAMAGFATRVDVKIHADGSVEVRDDGRGIPVEMHATGMPTIDVVMTQLHAGGKFDGETYAVSGGLHGVGVSVVNALSTRLEATVLRDGYEWFQYYDRSVPGKLKQGGETKETGTTIRFWADPEIFETTDYNFETVARRLQEMAFLNKGLTIELTDERVTAEEVVDDVVKDTAEAPKTADEKAAEATGPSKVKHRVFHYPGGLVDYVKHINRTKTPIQQSIIDFDGKGPGHEVEIAMQWNAGYSESVHTFANTINTHEGGTHEEGFRAALTSVVNRYAKDKKLLKDKDPNLTGDDIREGLAAVISVKVAEPQFEGQTKTKLGNTEVKSFVQKICNEQLQHWFEANPAEAKTVVNKAVSSAQARIAARKARELVRRKSATDIGGLPGKLADCRSTDPSKSELYVVEGDSAGGSAKSGRDSMFQAILPLRGKIINVEKARIDRVLKNTEVQSIITALGTGIHDEFDISKLRYHKIVLMADADVDGQHISTLLLTLLFRFMKPLVENGHIFLAQPPLYKLKWQRSEPEFAYSDRERDGLLEAGRAAGKKINVDDGIQRYKGLGEMDAKELWETTMDPSVRVLRQVTLDDAAAADELFSILMGEDVEARRSFITRNAKDVRFLDV

> <PDB ID(s) of Target Chain>
4BAE

> <UniProt (SwissProt) Recommended Name of Target Chain>
DNA gyrase subunit B

> <UniProt (SwissProt) Entry Name of Target Chain>
GYRB_MYCSM

> <UniProt (SwissProt) Primary ID of Target Chain>
P0C559

> <UniProt (SwissProt) Secondary ID(s) of Target Chain>
P48355,Q59555

> <UniProt (SwissProt) Alternative ID(s) of Target Chain>


> <UniProt (TrEMBL) Submitted Name of Target Chain>


> <UniProt (TrEMBL) Entry Name of Target Chain>


> <UniProt (TrEMBL) Primary ID of Target Chain>


> <UniProt (TrEMBL) Secondary ID(s) of Target Chain>


> <UniProt (TrEMBL) Alternative ID(s) of Target Chain>


$$$$

  Mrv0541 04171609262D          

 34 37  0  0  0  0            999 V2000
   -1.4361    0.4117    0.0000 C   0  0  0  0  0  0  0  0  0  0  0  0
   -1.4361   -0.4117    0.0000 C   0  0  0  0  0  0  0  0  0  0  0  0
   -0.7130   -0.8235    0.0000 C   0  0  0  0  0  0  0  0  0  0  0  0
   -0.7130    0.8235    0.0000 C   0  0  0  0  0  0  0  0  0  0  0  0
    0.0000    0.4117    0.0000 C   0  0  0  0  0  0  0  0  0  0  0  0
    0.0000   -0.4117    0.0000 C   0  0  0  0  0  0  0  0  0  0  0  0
    0.7130   -0.8235    0.0000 N   0  0  0  0  0  0  0  0  0  0  0  0
    1.4261   -0.4117    0.0000 C   0  0  0  0  0  0  0  0  0  0  0  0
    1.4261    0.4117    0.0000 C   0  0  0  0  0  0  0  0  0  0  0  0
    0.7130    0.8235    0.0000 C   0  0  0  0  0  0  0  0  0  0  0  0
    0.7130    1.6489    0.0000 N   0  0  0  0  0  0  0  0  0  0  0  0
   -0.0008    2.0627    0.0000 C   0  0  0  0  0  0  0  0  0  0  0  0
    0.0006    2.8877    0.0000 C   0  0  0  0  0  0  0  0  0  0  0  0
    0.7158    3.2990    0.0000 C   0  0  0  0  0  0  0  0  0  0  0  0
    1.4296    2.8853    0.0000 C   0  0  0  0  0  0  0  0  0  0  0  0
    1.4282    2.0603    0.0000 C   0  0  0  0  0  0  0  0  0  0  0  0
    0.7188    4.1245    0.0000 N   0  0  0  0  0  0  0  0  0  0  0  0
    1.4350    4.5350    0.0000 C   0  0  0  0  0  0  0  0  0  0  0  0
    2.0054    4.2031    0.0000 S   0  0  0  0  0  0  0  0  0  0  0  0
    1.4380    5.3604    0.0000 N   0  0  0  0  0  0  0  0  0  0  0  0
    2.1541    5.7709    0.0000 C   0  0  0  0  0  0  0  0  0  0  0  0
    2.1584    6.5960    0.0000 C   0  0  0  0  0  0  0  0  0  0  0  0
    2.8750    7.0048    0.0000 C   0  0  0  0  0  0  0  0  0  0  0  0
    3.5873    6.5887    0.0000 C   0  0  0  0  0  0  0  0  0  0  0  0
    3.5831    5.7637    0.0000 C   0  0  0  0  0  0  0  0  0  0  0  0
    2.8666    5.3548    0.0000 C   0  0  0  0  0  0  0  0  0  0  0  0
    1.9977   -0.7417    0.0000 C   0  0  0  0  0  0  0  0  0  0  0  0
   -2.1508    0.8246    0.0000 C   0  0  0  0  0  0  0  0  0  0  0  0
   -2.7227    0.4950    0.0000 F   0  0  0  0  0  0  0  0  0  0  0  0
   -2.1506    1.4846    0.0000 F   0  0  0  0  0  0  0  0  0  0  0  0
   -2.7222    1.1549    0.0000 F   0  0  0  0  0  0  0  0  0  0  0  0
    4.3051    6.9962    0.0000 N   0  3  0  0  0  0  0  0  0  0  0  0
    4.8746    6.6626    0.0000 O   0  0  0  0  0  0  0  0  0  0  0  0
    4.3096    7.6562    0.0000 O   0  5  0  0  0  0  0  0  0  0  0  0
  1  2  4  0  0  0  0
  2  3  4  0  0  0  0
  3  6  4  0  0  0  0
  5  4  4  0  0  0  0
  4  1  4  0  0  0  0
  5  6  4  0  0  0  0
  6  7  4  0  0  0  0
  7  8  4  0  0  0  0
  8  9  4  0  0  0  0
  9 10  4  0  0  0  0
 10  5  4  0  0  0  0
 11 12  1  0  0  0  0
 11 16  1  0  0  0  0
 12 13  1  0  0  0  0
 13 14  1  0  0  0  0
 14 15  1  0  0  0  0
 15 16  1  0  0  0  0
 10 11  1  0  0  0  0
 14 17  1  0  0  0  0
 17 18  1  0  0  0  0
 18 19  2  0  0  0  0
 18 20  1  0  0  0  0
 20 21  1  0  0  0  0
 21 22  4  0  0  0  0
 22 23  4  0  0  0  0
 23 24  4  0  0  0  0
 24 25  4  0  0  0  0
 25 26  4  0  0  0  0
 26 21  4  0  0  0  0
  8 27  1  0  0  0  0
  1 28  1  0  0  0  0
 28 29  1  0  0  0  0
 28 30  1  0  0  0  0
 28 31  1  0  0  0  0
 32 33  2  0  0  0  0
 32 34  1  0  0  0  0
 24 32  1  0  0  0  0
M  CHG  2  32   1  34  -1
M  END
> <From> 
www.bindingDB.org

> <BindingDB Reactant_set_id>
50303823

> <Ligand InChI>
InChI=1S/C23H22F3N5O2S/c1-14-12-21(19-13-15(23(24,25)26)2-7-20(19)27-14)30-10-8-17(9-11-30)29-22(34)28-16-3-5-18(6-4-16)31(32)33/h2-7,12-13,17H,8-11H2,1H3,(H2,28,29,34)

> <Ligand InChI Key>
ASPPKNHLWINVKI-UHFFFAOYSA-N

> <BindingDB MonomerID>
50067166

> <BindingDB Ligand Name>
CHEMBL3403286

> <Target Name Assigned by Curator or DataSource>
DNA gyrase subunit B

> <Target Source Organism According to Curator or DataSource>


> <Ki (nM)>


> <IC50 (nM)>
 41800

> <Kd (nM)>


> <EC50 (nM)>


> <kon (M-1-s-1)>


> <koff (s-1)>


> <pH>


> <Temp C>


> <Curation/DataSource>
ChEMBL

> <Article DOI>
10.1016/j.bmc.2015.03.004

> <PMID>
25801151

> <PubChem AID>


> <Patent Number>


> <Authors>
Medapi, B; Renuka, J; Saxena, S; Sridevi, JP; Medishetti, R; Kulkarni, P; Yogeeswari, P; Sriram, D

> <Institution>
Birla Institute of Technology&amp; Science-Pilani

> <Link to Ligand in BindingDB>
http://www.bindingdb.org/bind/chemsearch/marvin/MolStructure.jsp?monomerid=50067166

> <Link to Ligand-Target Pair in BindingDB>
http://www.bindingdb.org/jsp/dbsearch/PrimarySearch_ki.jsp?energyterm=kJ/mole&tag=pol&polymerid=50006452&target=DNA+gyrase+subunit+B&column=ki&startPg=0&Increment=50&submit=Search

> <Link to Ligand-Target Pair in BindingDB>
http://www.bindingdb.org/jsp/dbsearch/PrimarySearch_ki.jsp?energyterm=kJ/mole&tag=r21&monomerid=50067166&enzyme=DNA+gyrase+subunit+B&column=ki&startPg=0&Increment=50&submit=Search

> <Ligand HET ID in PDB>


> <PDB ID(s) for Ligand-Target Complex>


> <PubChem CID>
118729703

> <PubChem SID>
313071795

> <ChEBI ID of Ligand>


> <ChEMBL ID of Ligand>


> <DrugBank ID of Ligand>


> <IUPHAR_GRAC ID of Ligand>


> <KEGG ID of Ligand>


> <ZINC ID of Ligand>


> <Number of Protein Chains in Target (>1 implies a multichain complex)>
1

> <BindingDB Target Chain Sequence>
MAAQKNNAPKEYGADSITILEGLEAVRKRPGMYIGSTGERGLHHLIWEVVDNAVDEAMAGFATRVDVKIHADGSVEVRDDGRGIPVEMHATGMPTIDVVMTQLHAGGKFDGETYAVSGGLHGVGVSVVNALSTRLEATVLRDGYEWFQYYDRSVPGKLKQGGETKETGTTIRFWADPEIFETTDYNFETVARRLQEMAFLNKGLTIELTDERVTAEEVVDDVVKDTAEAPKTADEKAAEATGPSKVKHRVFHYPGGLVDYVKHINRTKTPIQQSIIDFDGKGPGHEVEIAMQWNAGYSESVHTFANTINTHEGGTHEEGFRAALTSVVNRYAKDKKLLKDKDPNLTGDDIREGLAAVISVKVAEPQFEGQTKTKLGNTEVKSFVQKICNEQLQHWFEANPAEAKTVVNKAVSSAQARIAARKARELVRRKSATDIGGLPGKLADCRSTDPSKSELYVVEGDSAGGSAKSGRDSMFQAILPLRGKIINVEKARIDRVLKNTEVQSIITALGTGIHDEFDISKLRYHKIVLMADADVDGQHISTLLLTLLFRFMKPLVENGHIFLAQPPLYKLKWQRSEPEFAYSDRERDGLLEAGRAAGKKINVDDGIQRYKGLGEMDAKELWETTMDPSVRVLRQVTLDDAAAADELFSILMGEDVEARRSFITRNAKDVRFLDV

> <PDB ID(s) of Target Chain>
4BAE

> <UniProt (SwissProt) Recommended Name of Target Chain>
DNA gyrase subunit B

> <UniProt (SwissProt) Entry Name of Target Chain>
GYRB_MYCSM

> <UniProt (SwissProt) Primary ID of Target Chain>
P0C559

> <UniProt (SwissProt) Secondary ID(s) of Target Chain>
P48355,Q59555

> <UniProt (SwissProt) Alternative ID(s) of Target Chain>


> <UniProt (TrEMBL) Submitted Name of Target Chain>


> <UniProt (TrEMBL) Entry Name of Target Chain>


> <UniProt (TrEMBL) Primary ID of Target Chain>


> <UniProt (TrEMBL) Secondary ID(s) of Target Chain>


> <UniProt (TrEMBL) Alternative ID(s) of Target Chain>


$$$$

  SciTegic09081514182D

 22 24  0  0  0  0            999 V2000
    1.2990   -0.7500    0.0000 C   0  0
    1.2990    0.7500    0.0000 C   0  0
    0.0000    1.5000    0.0000 C   0  0
   -1.2990    0.7500    0.0000 C   0  0
   -1.2990   -0.7500    0.0000 C   0  0
    0.0000   -1.5000    0.0000 C   0  0
   -2.5987   -1.5004    0.0000 C   0  0
   -3.9511   -0.8815    0.0000 S   0  0
   -4.9530   -1.9978    0.0000 C   0  0
   -4.2010   -3.2957    0.0000 C   0  0
   -2.7343   -2.9815    0.0000 C   0  0
   -4.8053   -4.6666    0.0000 C   0  0
   -4.0971   -5.6353    0.0000 O   0  0
   -5.9983   -4.7960    0.0000 N   0  0
   -6.4430   -1.8405    0.0000 N   0  0
   -7.0537   -0.4695    0.0000 C   0  0
   -6.3482    0.5012    0.0000 O   0  0
   -8.5462   -0.3119    0.0000 C   0  0
   -9.2765    0.9837    0.0000 C   0  0
  -10.7432    0.6695    0.0000 C   0  0
  -10.8977   -0.8225    0.0000 C   0  0
   -9.5264   -1.4305    0.0000 C   0  0
  1  2  2  0
  2  3  1  0
  3  4  2  0
  4  5  1  0
  5  6  2  0
  6  1  1  0
  7  8  1  0
  8  9  1  0
  9 10  2  0
 10 11  1  0
 11  7  2  0
  5  7  1  0
 10 12  1  0
 12 13  2  0
 12 14  1  0
  9 15  1  0
 15 16  1  0
 16 17  2  0
 16 18  1  0
 18 19  1  0
 19 20  1  0
 20 21  1  0
 21 22  1  0
 22 18  1  0
M  END
> <From> 
www.bindingDB.org

> <BindingDB Reactant_set_id>
50302350

> <Ligand InChI>
InChI=1S/C17H18N2O2S/c18-15(20)13-10-14(11-6-2-1-3-7-11)22-17(13)19-16(21)12-8-4-5-9-12/h1-3,6-7,10,12H,4-5,8-9H2,(H2,18,20)(H,19,21)

> <Ligand InChI Key>
LBCZAONBWGZRBF-UHFFFAOYSA-N

> <BindingDB MonomerID>
50066114

> <BindingDB Ligand Name>
CHEMBL3402955

> <Target Name Assigned by Curator or DataSource>
DNA gyrase subunit B

> <Target Source Organism According to Curator or DataSource>


> <Ki (nM)>


> <IC50 (nM)>
 42170

> <Kd (nM)>


> <EC50 (nM)>


> <kon (M-1-s-1)>


> <koff (s-1)>


> <pH>


> <Temp C>
25.00

> <Curation/DataSource>
ChEMBL

> <Article DOI>
10.1016/j.bmc.2015.02.032

> <PMID>
25766629

> <PubChem AID>


> <Patent Number>


> <Authors>
Saxena, S; Samala, G; Renuka, J; Sridevi, JP; Yogeeswari, P; Sriram, D

> <Institution>
Birla Institute of Technology&amp; Science-Pilani

> <Link to Ligand in BindingDB>
http://www.bindingdb.org/bind/chemsearch/marvin/MolStructure.jsp?monomerid=50066114

> <Link to Ligand-Target Pair in BindingDB>
http://www.bindingdb.org/jsp/dbsearch/PrimarySearch_ki.jsp?energyterm=kJ/mole&tag=pol&polymerid=50006452&target=DNA+gyrase+subunit+B&column=ki&startPg=0&Increment=50&submit=Search

> <Link to Ligand-Target Pair in BindingDB>
http://www.bindingdb.org/jsp/dbsearch/PrimarySearch_ki.jsp?energyterm=kJ/mole&tag=r21&monomerid=50066114&enzyme=DNA+gyrase+subunit+B&column=ki&startPg=0&Increment=50&submit=Search

> <Ligand HET ID in PDB>


> <PDB ID(s) for Ligand-Target Complex>


> <PubChem CID>
118729472

> <PubChem SID>
103960796

> <ChEBI ID of Ligand>


> <ChEMBL ID of Ligand>
CHEMBL322953

> <DrugBank ID of Ligand>


> <IUPHAR_GRAC ID of Ligand>


> <KEGG ID of Ligand>


> <ZINC ID of Ligand>
ZINC13780707

> <Number of Protein Chains in Target (>1 implies a multichain complex)>
1

> <BindingDB Target Chain Sequence>
MAAQKNNAPKEYGADSITILEGLEAVRKRPGMYIGSTGERGLHHLIWEVVDNAVDEAMAGFATRVDVKIHADGSVEVRDDGRGIPVEMHATGMPTIDVVMTQLHAGGKFDGETYAVSGGLHGVGVSVVNALSTRLEATVLRDGYEWFQYYDRSVPGKLKQGGETKETGTTIRFWADPEIFETTDYNFETVARRLQEMAFLNKGLTIELTDERVTAEEVVDDVVKDTAEAPKTADEKAAEATGPSKVKHRVFHYPGGLVDYVKHINRTKTPIQQSIIDFDGKGPGHEVEIAMQWNAGYSESVHTFANTINTHEGGTHEEGFRAALTSVVNRYAKDKKLLKDKDPNLTGDDIREGLAAVISVKVAEPQFEGQTKTKLGNTEVKSFVQKICNEQLQHWFEANPAEAKTVVNKAVSSAQARIAARKARELVRRKSATDIGGLPGKLADCRSTDPSKSELYVVEGDSAGGSAKSGRDSMFQAILPLRGKIINVEKARIDRVLKNTEVQSIITALGTGIHDEFDISKLRYHKIVLMADADVDGQHISTLLLTLLFRFMKPLVENGHIFLAQPPLYKLKWQRSEPEFAYSDRERDGLLEAGRAAGKKINVDDGIQRYKGLGEMDAKELWETTMDPSVRVLRQVTLDDAAAADELFSILMGEDVEARRSFITRNAKDVRFLDV

> <PDB ID(s) of Target Chain>
4BAE

> <UniProt (SwissProt) Recommended Name of Target Chain>
DNA gyrase subunit B

> <UniProt (SwissProt) Entry Name of Target Chain>
GYRB_MYCSM

> <UniProt (SwissProt) Primary ID of Target Chain>
P0C559

> <UniProt (SwissProt) Secondary ID(s) of Target Chain>
P48355,Q59555

> <UniProt (SwissProt) Alternative ID(s) of Target Chain>


> <UniProt (TrEMBL) Submitted Name of Target Chain>


> <UniProt (TrEMBL) Entry Name of Target Chain>


> <UniProt (TrEMBL) Primary ID of Target Chain>


> <UniProt (TrEMBL) Secondary ID(s) of Target Chain>


> <UniProt (TrEMBL) Alternative ID(s) of Target Chain>


$$$$

  SciTegic10231713522D

 30 33  0  0  0  0            999 V2000
   30.9322   -1.9398    0.0000 C   0  0
   30.9310   -2.7593    0.0000 C   0  0
   31.6391   -3.1683    0.0000 C   0  0
   31.6373   -1.5309    0.0000 C   0  0
   32.3459   -1.9362    0.0000 C   0  0
   32.3507   -2.7593    0.0000 C   0  0
   33.1351   -3.0091    0.0000 N   0  0
   33.6151   -2.3403    0.0000 C   0  0
   33.1273   -1.6773    0.0000 C   0  0
   33.3752   -0.8986    0.0000 O   0  0
   34.4323   -2.3355    0.0000 O   0  0
   33.3921   -3.7849    0.0000 C   0  0
   32.8489   -4.3953    0.0000 C   0  0
   33.1059   -5.1710    0.0000 N   0  0
   32.5655   -5.7798    0.0000 C   0  0
   32.8196   -6.5528    0.0000 C   0  0
   33.6194   -6.7222    0.0000 N   0  0
   34.1647   -6.1123    0.0000 C   0  0
   33.9103   -5.3330    0.0000 C   0  0
   33.8735   -7.4989    0.0000 N   0  0
   34.6732   -7.6671    0.0000 C   0  0
   35.2187   -7.0587    0.0000 C   0  0
   36.0175   -7.2307    0.0000 C   0  0
   36.5628   -6.6231    0.0000 C   0  0
   36.3089   -5.8455    0.0000 C   0  0
   35.5045   -5.6789    0.0000 C   0  0
   34.9627   -6.2879    0.0000 C   0  0
   36.2696   -8.0081    0.0000 Cl  0  0
   36.8536   -5.2364    0.0000 Cl  0  0
   30.2244   -1.5313    0.0000 F   0  0
  1  2  2  0
  2  3  1  0
  3  6  2  0
  5  4  2  0
  4  1  1  0
  5  6  1  0
  6  7  1  0
  7  8  1  0
  8  9  1  0
  9  5  1  0
  9 10  2  0
  8 11  2  0
  7 12  1  0
 12 13  1  0
 13 14  1  0
 14 15  1  0
 14 19  1  0
 15 16  1  0
 16 17  1  0
 17 18  1  0
 18 19  1  0
 17 20  1  0
 20 21  1  0
 21 22  1  0
 22 23  2  0
 23 24  1  0
 24 25  2  0
 25 26  1  0
 26 27  2  0
 27 22  1  0
 23 28  1  0
 25 29  1  0
  1 30  1  0
M  END
> <From> 
www.bindingDB.org

> <BindingDB Reactant_set_id>
50543798

> <Ligand InChI>
InChI=1S/C21H21Cl2FN4O2/c22-15-2-1-14(18(23)11-15)13-25-27-8-5-26(6-9-27)7-10-28-19-4-3-16(24)12-17(19)20(29)21(28)30/h1-4,11-12,25H,5-10,13H2

> <Ligand InChI Key>
YRWBHOCYPAGGQW-UHFFFAOYSA-N

> <BindingDB MonomerID>
50208266

> <BindingDB Ligand Name>
CHEMBL3884055

> <Target Name Assigned by Curator or DataSource>
DNA gyrase subunit B

> <Target Source Organism According to Curator or DataSource>


> <Ki (nM)>


> <IC50 (nM)>
 43000

> <Kd (nM)>


> <EC50 (nM)>


> <kon (M-1-s-1)>


> <koff (s-1)>


> <pH>


> <Temp C>


> <Curation/DataSource>
ChEMBL

> <Article DOI>
10.1016/j.ejmech.2016.08.034

> <PMID>
27569197

> <PubChem AID>


> <Patent Number>


> <Authors>
Chaudhari, K; Surana, S; Jain, P; Patel, HM

> <Institution>
R. C. Patel Institute of Pharmaceutical Education and Research

> <Link to Ligand in BindingDB>
http://www.bindingdb.org/bind/chemsearch/marvin/MolStructure.jsp?monomerid=50208266

> <Link to Ligand-Target Pair in BindingDB>
http://www.bindingdb.org/jsp/dbsearch/PrimarySearch_ki.jsp?energyterm=kJ/mole&tag=pol&polymerid=50006452&target=DNA+gyrase+subunit+B&column=ki&startPg=0&Increment=50&submit=Search

> <Link to Ligand-Target Pair in BindingDB>
http://www.bindingdb.org/jsp/dbsearch/PrimarySearch_ki.jsp?energyterm=kJ/mole&tag=r21&monomerid=50208266&enzyme=DNA+gyrase+subunit+B&column=ki&startPg=0&Increment=50&submit=Search

> <Ligand HET ID in PDB>


> <PDB ID(s) for Ligand-Target Complex>


> <PubChem CID>
134130552

> <PubChem SID>
375981959

> <ChEBI ID of Ligand>


> <ChEMBL ID of Ligand>


> <DrugBank ID of Ligand>


> <IUPHAR_GRAC ID of Ligand>


> <KEGG ID of Ligand>


> <ZINC ID of Ligand>


> <Number of Protein Chains in Target (>1 implies a multichain complex)>
1

> <BindingDB Target Chain Sequence>
MAAQKNNAPKEYGADSITILEGLEAVRKRPGMYIGSTGERGLHHLIWEVVDNAVDEAMAGFATRVDVKIHADGSVEVRDDGRGIPVEMHATGMPTIDVVMTQLHAGGKFDGETYAVSGGLHGVGVSVVNALSTRLEATVLRDGYEWFQYYDRSVPGKLKQGGETKETGTTIRFWADPEIFETTDYNFETVARRLQEMAFLNKGLTIELTDERVTAEEVVDDVVKDTAEAPKTADEKAAEATGPSKVKHRVFHYPGGLVDYVKHINRTKTPIQQSIIDFDGKGPGHEVEIAMQWNAGYSESVHTFANTINTHEGGTHEEGFRAALTSVVNRYAKDKKLLKDKDPNLTGDDIREGLAAVISVKVAEPQFEGQTKTKLGNTEVKSFVQKICNEQLQHWFEANPAEAKTVVNKAVSSAQARIAARKARELVRRKSATDIGGLPGKLADCRSTDPSKSELYVVEGDSAGGSAKSGRDSMFQAILPLRGKIINVEKARIDRVLKNTEVQSIITALGTGIHDEFDISKLRYHKIVLMADADVDGQHISTLLLTLLFRFMKPLVENGHIFLAQPPLYKLKWQRSEPEFAYSDRERDGLLEAGRAAGKKINVDDGIQRYKGLGEMDAKELWETTMDPSVRVLRQVTLDDAAAADELFSILMGEDVEARRSFITRNAKDVRFLDV

> <PDB ID(s) of Target Chain>
4BAE

> <UniProt (SwissProt) Recommended Name of Target Chain>
DNA gyrase subunit B

> <UniProt (SwissProt) Entry Name of Target Chain>
GYRB_MYCSM

> <UniProt (SwissProt) Primary ID of Target Chain>
P0C559

> <UniProt (SwissProt) Secondary ID(s) of Target Chain>
P48355,Q59555

> <UniProt (SwissProt) Alternative ID(s) of Target Chain>


> <UniProt (TrEMBL) Submitted Name of Target Chain>


> <UniProt (TrEMBL) Entry Name of Target Chain>


> <UniProt (TrEMBL) Primary ID of Target Chain>


> <UniProt (TrEMBL) Secondary ID(s) of Target Chain>


> <UniProt (TrEMBL) Alternative ID(s) of Target Chain>


$$$$

  SciTegic10231716262D

 30 33  0  0  0  0            999 V2000
   12.6114   -2.4020    0.0000 C   0  0
   12.6102   -3.2215    0.0000 C   0  0
   13.3183   -3.6305    0.0000 C   0  0
   13.3165   -1.9931    0.0000 C   0  0
   14.0251   -2.3984    0.0000 C   0  0
   14.0300   -3.2216    0.0000 C   0  0
   14.8143   -3.4714    0.0000 N   0  0
   15.2943   -2.8026    0.0000 C   0  0
   14.8065   -2.1395    0.0000 C   0  0
   15.0545   -1.3608    0.0000 O   0  0
   16.1115   -2.7977    0.0000 O   0  0
   15.0714   -4.2471    0.0000 C   0  0
   14.5281   -4.8576    0.0000 C   0  0
   14.7852   -5.6333    0.0000 N   0  0
   14.2447   -6.2421    0.0000 C   0  0
   14.4988   -7.0150    0.0000 C   0  0
   15.2986   -7.1844    0.0000 N   0  0
   15.8440   -6.5746    0.0000 C   0  0
   15.5895   -5.7953    0.0000 C   0  0
   15.5527   -7.9611    0.0000 N   0  0
   16.3524   -8.1294    0.0000 C   0  0
   16.8980   -7.5210    0.0000 C   0  0
   17.6967   -7.6930    0.0000 C   0  0
   18.2421   -7.0854    0.0000 C   0  0
   17.9881   -6.3077    0.0000 C   0  0
   17.1837   -6.1412    0.0000 C   0  0
   16.6419   -6.7501    0.0000 C   0  0
   17.9489   -8.4703    0.0000 Cl  0  0
   19.0417   -7.2540    0.0000 Cl  0  0
   11.9036   -1.9936    0.0000 Cl  0  0
  1  2  2  0
  2  3  1  0
  3  6  2  0
  5  4  2  0
  4  1  1  0
  5  6  1  0
  6  7  1  0
  7  8  1  0
  8  9  1  0
  9  5  1  0
  9 10  2  0
  8 11  2  0
  7 12  1  0
 12 13  1  0
 13 14  1  0
 14 15  1  0
 14 19  1  0
 15 16  1  0
 16 17  1  0
 17 18  1  0
 18 19  1  0
 17 20  1  0
 20 21  1  0
 21 22  1  0
 22 23  2  0
 23 24  1  0
 24 25  2  0
 25 26  1  0
 26 27  2  0
 27 22  1  0
 23 28  1  0
 24 29  1  0
  1 30  1  0
M  END
> <From> 
www.bindingDB.org

> <BindingDB Reactant_set_id>
50543824

> <Ligand InChI>
InChI=1S/C21H21Cl3N4O2/c22-15-4-5-18-16(12-15)20(29)21(30)28(18)11-8-26-6-9-27(10-7-26)25-13-14-2-1-3-17(23)19(14)24/h1-5,12,25H,6-11,13H2

> <Ligand InChI Key>
JDFPHGZCGBYHQY-UHFFFAOYSA-N

> <BindingDB MonomerID>
50208290

> <BindingDB Ligand Name>
CHEMBL3884913

> <Target Name Assigned by Curator or DataSource>
DNA gyrase subunit B

> <Target Source Organism According to Curator or DataSource>


> <Ki (nM)>


> <IC50 (nM)>
 43200

> <Kd (nM)>


> <EC50 (nM)>


> <kon (M-1-s-1)>


> <koff (s-1)>


> <pH>


> <Temp C>


> <Curation/DataSource>
ChEMBL

> <Article DOI>
10.1016/j.ejmech.2016.08.034

> <PMID>
27569197

> <PubChem AID>


> <Patent Number>


> <Authors>
Chaudhari, K; Surana, S; Jain, P; Patel, HM

> <Institution>
R. C. Patel Institute of Pharmaceutical Education and Research

> <Link to Ligand in BindingDB>
http://www.bindingdb.org/bind/chemsearch/marvin/MolStructure.jsp?monomerid=50208290

> <Link to Ligand-Target Pair in BindingDB>
http://www.bindingdb.org/jsp/dbsearch/PrimarySearch_ki.jsp?energyterm=kJ/mole&tag=pol&polymerid=50006452&target=DNA+gyrase+subunit+B&column=ki&startPg=0&Increment=50&submit=Search

> <Link to Ligand-Target Pair in BindingDB>
http://www.bindingdb.org/jsp/dbsearch/PrimarySearch_ki.jsp?energyterm=kJ/mole&tag=r21&monomerid=50208290&enzyme=DNA+gyrase+subunit+B&column=ki&startPg=0&Increment=50&submit=Search

> <Ligand HET ID in PDB>


> <PDB ID(s) for Ligand-Target Complex>


> <PubChem CID>
134130611

> <PubChem SID>
375981983

> <ChEBI ID of Ligand>


> <ChEMBL ID of Ligand>


> <DrugBank ID of Ligand>


> <IUPHAR_GRAC ID of Ligand>


> <KEGG ID of Ligand>


> <ZINC ID of Ligand>


> <Number of Protein Chains in Target (>1 implies a multichain complex)>
1

> <BindingDB Target Chain Sequence>
MAAQKNNAPKEYGADSITILEGLEAVRKRPGMYIGSTGERGLHHLIWEVVDNAVDEAMAGFATRVDVKIHADGSVEVRDDGRGIPVEMHATGMPTIDVVMTQLHAGGKFDGETYAVSGGLHGVGVSVVNALSTRLEATVLRDGYEWFQYYDRSVPGKLKQGGETKETGTTIRFWADPEIFETTDYNFETVARRLQEMAFLNKGLTIELTDERVTAEEVVDDVVKDTAEAPKTADEKAAEATGPSKVKHRVFHYPGGLVDYVKHINRTKTPIQQSIIDFDGKGPGHEVEIAMQWNAGYSESVHTFANTINTHEGGTHEEGFRAALTSVVNRYAKDKKLLKDKDPNLTGDDIREGLAAVISVKVAEPQFEGQTKTKLGNTEVKSFVQKICNEQLQHWFEANPAEAKTVVNKAVSSAQARIAARKARELVRRKSATDIGGLPGKLADCRSTDPSKSELYVVEGDSAGGSAKSGRDSMFQAILPLRGKIINVEKARIDRVLKNTEVQSIITALGTGIHDEFDISKLRYHKIVLMADADVDGQHISTLLLTLLFRFMKPLVENGHIFLAQPPLYKLKWQRSEPEFAYSDRERDGLLEAGRAAGKKINVDDGIQRYKGLGEMDAKELWETTMDPSVRVLRQVTLDDAAAADELFSILMGEDVEARRSFITRNAKDVRFLDV

> <PDB ID(s) of Target Chain>
4BAE

> <UniProt (SwissProt) Recommended Name of Target Chain>
DNA gyrase subunit B

> <UniProt (SwissProt) Entry Name of Target Chain>
GYRB_MYCSM

> <UniProt (SwissProt) Primary ID of Target Chain>
P0C559

> <UniProt (SwissProt) Secondary ID(s) of Target Chain>
P48355,Q59555

> <UniProt (SwissProt) Alternative ID(s) of Target Chain>


> <UniProt (TrEMBL) Submitted Name of Target Chain>


> <UniProt (TrEMBL) Entry Name of Target Chain>


> <UniProt (TrEMBL) Primary ID of Target Chain>


> <UniProt (TrEMBL) Secondary ID(s) of Target Chain>


> <UniProt (TrEMBL) Alternative ID(s) of Target Chain>


$$$$

  SciTegic12221709322D

 23 25  0  0  0  0            999 V2000
   10.8426   -7.8416    0.0000 N   0  0
   10.1361   -8.2403    0.0000 C   0  0
   10.1248   -9.0574    0.0000 C   0  0
   10.8281   -9.4758    0.0000 N   0  0
   11.5429   -9.0730    0.0000 C   0  0
   11.5501   -8.2558    0.0000 C   0  0
   10.8539   -7.0244    0.0000 C   0  0
   10.1464   -6.6060    0.0000 O   0  0
   11.5645   -6.6216    0.0000 N   0  0
   11.5717   -5.8044    0.0000 C   0  0
   12.2823   -5.4015    0.0000 C   0  0
   10.8684   -5.3901    0.0000 C   0  0
   10.8065  -11.9273    0.0000 N   0  0
   11.5171  -11.5244    0.0000 C   0  0
   11.5243  -10.7072    0.0000 C   0  0
   10.8250  -10.2930    0.0000 C   0  0
   10.1103  -10.6917    0.0000 C   0  0
    9.4070  -10.2775    0.0000 C   0  0
    8.6964  -10.6803    0.0000 C   0  0
    8.6891  -11.4975    0.0000 C   0  0
    9.3925  -11.9117    0.0000 C   0  0
   10.1031  -11.5089    0.0000 C   0  0
    7.9744  -11.9003    0.0000 Cl  0  0
  1  2  1  0
  2  3  1  0
  3  4  1  0
  4  5  1  0
  5  6  1  0
  1  6  1  0
  7  8  2  0
  7  9  1  0
  1  7  1  0
 10 11  1  0
 10 12  1  0
  9 10  1  0
 13 14  2  0
 14 15  1  0
 15 16  2  0
 16 17  1  0
 17 18  2  0
 18 19  1  0
 19 20  2  0
 20 21  1  0
 21 22  2  0
 13 22  1  0
 17 22  1  0
 20 23  1  0
  4 16  1  0
M  END
> <From> 
www.bindingDB.org

> <BindingDB Reactant_set_id>
50528055

> <Ligand InChI>
InChI=1S/C17H21ClN4O/c1-12(2)20-17(23)22-9-7-21(8-10-22)16-5-6-19-15-11-13(18)3-4-14(15)16/h3-6,11-12H,7-10H2,1-2H3,(H,20,23)

> <Ligand InChI Key>
KABWLRIZBIWIEQ-UHFFFAOYSA-N

> <BindingDB MonomerID>
50202010

> <BindingDB Ligand Name>
CHEMBL3952721

> <Target Name Assigned by Curator or DataSource>
DNA gyrase subunit B

> <Target Source Organism According to Curator or DataSource>


> <Ki (nM)>


> <IC50 (nM)>
 43900

> <Kd (nM)>


> <EC50 (nM)>


> <kon (M-1-s-1)>


> <koff (s-1)>


> <pH>


> <Temp C>


> <Curation/DataSource>
ChEMBL

> <Article DOI>
10.1016/j.ejmech.2016.06.042

> <PMID>
27371925

> <PubChem AID>


> <Patent Number>


> <Authors>
Jeankumar, VU; Reshma, RS; Vats, R; Janupally, R; Saxena, S; Yogeeswari, P; Sriram, D

> <Institution>
Birla Institute of Technology&amp; Science-Pilani

> <Link to Ligand in BindingDB>
http://www.bindingdb.org/bind/chemsearch/marvin/MolStructure.jsp?monomerid=50202010

> <Link to Ligand-Target Pair in BindingDB>
http://www.bindingdb.org/jsp/dbsearch/PrimarySearch_ki.jsp?energyterm=kJ/mole&tag=pol&polymerid=50006452&target=DNA+gyrase+subunit+B&column=ki&startPg=0&Increment=50&submit=Search

> <Link to Ligand-Target Pair in BindingDB>
http://www.bindingdb.org/jsp/dbsearch/PrimarySearch_ki.jsp?energyterm=kJ/mole&tag=r21&monomerid=50202010&enzyme=DNA+gyrase+subunit+B&column=ki&startPg=0&Increment=50&submit=Search

> <Ligand HET ID in PDB>


> <PDB ID(s) for Ligand-Target Complex>


> <PubChem CID>
134144807

> <PubChem SID>
375979569

> <ChEBI ID of Ligand>


> <ChEMBL ID of Ligand>


> <DrugBank ID of Ligand>


> <IUPHAR_GRAC ID of Ligand>


> <KEGG ID of Ligand>


> <ZINC ID of Ligand>


> <Number of Protein Chains in Target (>1 implies a multichain complex)>
1

> <BindingDB Target Chain Sequence>
MAAQKNNAPKEYGADSITILEGLEAVRKRPGMYIGSTGERGLHHLIWEVVDNAVDEAMAGFATRVDVKIHADGSVEVRDDGRGIPVEMHATGMPTIDVVMTQLHAGGKFDGETYAVSGGLHGVGVSVVNALSTRLEATVLRDGYEWFQYYDRSVPGKLKQGGETKETGTTIRFWADPEIFETTDYNFETVARRLQEMAFLNKGLTIELTDERVTAEEVVDDVVKDTAEAPKTADEKAAEATGPSKVKHRVFHYPGGLVDYVKHINRTKTPIQQSIIDFDGKGPGHEVEIAMQWNAGYSESVHTFANTINTHEGGTHEEGFRAALTSVVNRYAKDKKLLKDKDPNLTGDDIREGLAAVISVKVAEPQFEGQTKTKLGNTEVKSFVQKICNEQLQHWFEANPAEAKTVVNKAVSSAQARIAARKARELVRRKSATDIGGLPGKLADCRSTDPSKSELYVVEGDSAGGSAKSGRDSMFQAILPLRGKIINVEKARIDRVLKNTEVQSIITALGTGIHDEFDISKLRYHKIVLMADADVDGQHISTLLLTLLFRFMKPLVENGHIFLAQPPLYKLKWQRSEPEFAYSDRERDGLLEAGRAAGKKINVDDGIQRYKGLGEMDAKELWETTMDPSVRVLRQVTLDDAAAADELFSILMGEDVEARRSFITRNAKDVRFLDV

> <PDB ID(s) of Target Chain>
4BAE

> <UniProt (SwissProt) Recommended Name of Target Chain>
DNA gyrase subunit B

> <UniProt (SwissProt) Entry Name of Target Chain>
GYRB_MYCSM

> <UniProt (SwissProt) Primary ID of Target Chain>
P0C559

> <UniProt (SwissProt) Secondary ID(s) of Target Chain>
P48355,Q59555

> <UniProt (SwissProt) Alternative ID(s) of Target Chain>


> <UniProt (TrEMBL) Submitted Name of Target Chain>


> <UniProt (TrEMBL) Entry Name of Target Chain>


> <UniProt (TrEMBL) Primary ID of Target Chain>


> <UniProt (TrEMBL) Secondary ID(s) of Target Chain>


> <UniProt (TrEMBL) Alternative ID(s) of Target Chain>


$$$$

  SciTegic04201612532D

 33 36  0  0  0  0            999 V2000
   -1.2964    1.4973    0.0000 N   0  0
   -2.6111    0.7486    0.0000 C   0  0
   -2.6111   -0.7486    0.0000 C   0  0
   -1.2964   -1.4973    0.0000 C   0  0
    0.0000   -0.7486    0.0000 C   0  0
    1.2964   -1.4973    0.0000 C   0  0
    2.5929   -0.7486    0.0000 C   0  0
    2.5929    0.7486    0.0000 C   0  0
    1.2964    1.4973    0.0000 C   0  0
    0.0000    0.7486    0.0000 C   0  0
   -3.9122   -1.4966    0.0000 C   0  0
   -3.9138   -2.4966    0.0000 O   0  0
   -5.2109   -0.7445    0.0000 N   0  0
   -1.2907   -2.9981    0.0000 N   0  0
   -2.5870   -3.7544    0.0000 C   0  0
   -2.5835   -5.2544    0.0000 C   0  0
   -3.8807   -6.0076    0.0000 C   0  0
   -5.1815   -5.2608    0.0000 C   0  0
   -5.1852   -3.7608    0.0000 C   0  0
   -3.8880   -3.0076    0.0000 C   0  0
   -6.4810   -6.0117    0.0000 N   0  0
   -7.7815   -5.2626    0.0000 C   0  0
   -9.0810   -6.0135    0.0000 C   0  0
  -10.3815   -5.2644    0.0000 C   0  0
  -14.2755   -7.5217    0.0000 O   0  0
  -14.2791   -6.0217    0.0000 C   0  0
  -12.9819   -5.2686    0.0000 C   0  0
  -11.6810   -6.0154    0.0000 N   0  0
  -11.6774   -7.5154    0.0000 C   0  0
  -12.9746   -8.2686    0.0000 C   0  0
   -6.2513   -1.3425    0.0000 N   0  0
    3.8942   -1.4964    0.0000 O   0  0
    4.9326   -0.8949    0.0000 C   0  0
  1  2  2  0
  2  3  1  0
  3  4  2  0
  4  5  1  0
  5  6  2  0
  6  7  1  0
  7  8  2  0
  8  9  1  0
  9 10  2  0
  1 10  1  0
  5 10  1  0
 11 12  2  0
 11 13  1  0
  3 11  1  0
 15 16  1  0
 16 17  2  0
 17 18  1  0
 18 19  2  0
 19 20  1  0
 15 20  2  0
 22 23  1  0
 23 24  1  0
 21 22  1  0
 25 26  1  0
 26 27  1  0
 27 28  1  0
 28 29  1  0
 29 30  1  0
 25 30  1  0
 24 28  1  0
 18 21  1  0
 14 15  1  0
  4 14  1  0
 13 31  1  0
 32 33  1  0
  7 32  1  0
M  END
> <From> 
www.bindingDB.org

> <BindingDB Reactant_set_id>
50426773

> <Ligand InChI>
InChI=1S/C24H30N6O3/c1-32-19-7-8-22-20(15-19)23(21(16-27-22)24(31)29-25)28-18-5-3-17(4-6-18)26-9-2-10-30-11-13-33-14-12-30/h3-8,15-16,26H,2,9-14,25H2,1H3,(H,27,28)(H,29,31)

> <Ligand InChI Key>
RPFFDWYEPQTHJD-UHFFFAOYSA-N

> <BindingDB MonomerID>
50126792

> <BindingDB Ligand Name>
CHEMBL3628445

> <Target Name Assigned by Curator or DataSource>
DNA gyrase subunit B

> <Target Source Organism According to Curator or DataSource>


> <Ki (nM)>


> <IC50 (nM)>
 44930

> <Kd (nM)>


> <EC50 (nM)>


> <kon (M-1-s-1)>


> <koff (s-1)>


> <pH>


> <Temp C>


> <Curation/DataSource>
ChEMBL

> <Article DOI>
10.1016/j.ejmech.2015.06.032

> <PMID>
26318054

> <PubChem AID>


> <Patent Number>


> <Authors>
Medapi, B; Suryadevara, P; Renuka, J; Sridevi, JP; Yogeeswari, P; Sriram, D

> <Institution>
Birla Institute of Technology&amp;Science

> <Link to Ligand in BindingDB>
http://www.bindingdb.org/bind/chemsearch/marvin/MolStructure.jsp?monomerid=50126792

> <Link to Ligand-Target Pair in BindingDB>
http://www.bindingdb.org/jsp/dbsearch/PrimarySearch_ki.jsp?energyterm=kJ/mole&tag=pol&polymerid=50006452&target=DNA+gyrase+subunit+B&column=ki&startPg=0&Increment=50&submit=Search

> <Link to Ligand-Target Pair in BindingDB>
http://www.bindingdb.org/jsp/dbsearch/PrimarySearch_ki.jsp?energyterm=kJ/mole&tag=r21&monomerid=50126792&enzyme=DNA+gyrase+subunit+B&column=ki&startPg=0&Increment=50&submit=Search

> <Ligand HET ID in PDB>


> <PDB ID(s) for Ligand-Target Complex>


> <PubChem CID>
122193458

> <PubChem SID>
321902394

> <ChEBI ID of Ligand>


> <ChEMBL ID of Ligand>


> <DrugBank ID of Ligand>


> <IUPHAR_GRAC ID of Ligand>


> <KEGG ID of Ligand>


> <ZINC ID of Ligand>


> <Number of Protein Chains in Target (>1 implies a multichain complex)>
1

> <BindingDB Target Chain Sequence>
MAAQKNNAPKEYGADSITILEGLEAVRKRPGMYIGSTGERGLHHLIWEVVDNAVDEAMAGFATRVDVKIHADGSVEVRDDGRGIPVEMHATGMPTIDVVMTQLHAGGKFDGETYAVSGGLHGVGVSVVNALSTRLEATVLRDGYEWFQYYDRSVPGKLKQGGETKETGTTIRFWADPEIFETTDYNFETVARRLQEMAFLNKGLTIELTDERVTAEEVVDDVVKDTAEAPKTADEKAAEATGPSKVKHRVFHYPGGLVDYVKHINRTKTPIQQSIIDFDGKGPGHEVEIAMQWNAGYSESVHTFANTINTHEGGTHEEGFRAALTSVVNRYAKDKKLLKDKDPNLTGDDIREGLAAVISVKVAEPQFEGQTKTKLGNTEVKSFVQKICNEQLQHWFEANPAEAKTVVNKAVSSAQARIAARKARELVRRKSATDIGGLPGKLADCRSTDPSKSELYVVEGDSAGGSAKSGRDSMFQAILPLRGKIINVEKARIDRVLKNTEVQSIITALGTGIHDEFDISKLRYHKIVLMADADVDGQHISTLLLTLLFRFMKPLVENGHIFLAQPPLYKLKWQRSEPEFAYSDRERDGLLEAGRAAGKKINVDDGIQRYKGLGEMDAKELWETTMDPSVRVLRQVTLDDAAAADELFSILMGEDVEARRSFITRNAKDVRFLDV

> <PDB ID(s) of Target Chain>
4BAE

> <UniProt (SwissProt) Recommended Name of Target Chain>
DNA gyrase subunit B

> <UniProt (SwissProt) Entry Name of Target Chain>
GYRB_MYCSM

> <UniProt (SwissProt) Primary ID of Target Chain>
P0C559

> <UniProt (SwissProt) Secondary ID(s) of Target Chain>
P48355,Q59555

> <UniProt (SwissProt) Alternative ID(s) of Target Chain>


> <UniProt (TrEMBL) Submitted Name of Target Chain>


> <UniProt (TrEMBL) Entry Name of Target Chain>


> <UniProt (TrEMBL) Primary ID of Target Chain>


> <UniProt (TrEMBL) Secondary ID(s) of Target Chain>


> <UniProt (TrEMBL) Alternative ID(s) of Target Chain>


$$$$

  SciTegic12211714362D

 22 24  0  0  0  0            999 V2000
   12.6933   -9.1679    0.0000 N   0  0
   11.9855   -9.5714    0.0000 C   0  0
   11.9796  -10.3886    0.0000 C   0  0
   12.6857  -10.8023    0.0000 N   0  0
   13.3936  -10.3988    0.0000 C   0  0
   13.3995   -9.5816    0.0000 C   0  0
   12.6992   -8.3508    0.0000 C   0  0
   11.9931   -7.9371    0.0000 O   0  0
   13.4071   -7.9473    0.0000 N   0  0
   13.4130   -7.1301    0.0000 C   0  0
   14.1209   -6.7225    0.0000 C   0  0
   12.6763  -13.2538    0.0000 N   0  0
   13.3842  -12.8503    0.0000 C   0  0
   13.3859  -12.0332    0.0000 C   0  0
   12.6798  -11.6195    0.0000 C   0  0
   11.9719  -12.0230    0.0000 C   0  0
   11.2658  -11.6134    0.0000 C   0  0
   10.5579  -12.0169    0.0000 C   0  0
   10.5520  -12.8341    0.0000 C   0  0
   11.2581  -13.2478    0.0000 C   0  0
   11.9702  -12.8401    0.0000 C   0  0
    9.8441  -13.2417    0.0000 Cl  0  0
  1  2  1  0
  2  3  1  0
  3  4  1  0
  4  5  1  0
  5  6  1  0
  1  6  1  0
  7  8  2  0
  7  9  1  0
  1  7  1  0
 10 11  1  0
  9 10  1  0
 12 13  2  0
 13 14  1  0
 14 15  2  0
 15 16  1  0
 16 17  2  0
 17 18  1  0
 18 19  2  0
 19 20  1  0
 20 21  2  0
 12 21  1  0
 16 21  1  0
 19 22  1  0
  4 15  1  0
M  END
> <From> 
www.bindingDB.org

> <BindingDB Reactant_set_id>
50528072

> <Ligand InChI>
InChI=1S/C16H19ClN4O/c1-2-18-16(22)21-9-7-20(8-10-21)15-5-6-19-14-11-12(17)3-4-13(14)15/h3-6,11H,2,7-10H2,1H3,(H,18,22)

> <Ligand InChI Key>
CWGFNQIEHMBOEP-UHFFFAOYSA-N

> <BindingDB MonomerID>
50202204

> <BindingDB Ligand Name>
CHEMBL3925015

> <Target Name Assigned by Curator or DataSource>
DNA gyrase subunit B

> <Target Source Organism According to Curator or DataSource>


> <Ki (nM)>


> <IC50 (nM)>
 45300

> <Kd (nM)>


> <EC50 (nM)>


> <kon (M-1-s-1)>


> <koff (s-1)>


> <pH>


> <Temp C>


> <Curation/DataSource>
ChEMBL

> <Article DOI>
10.1016/j.ejmech.2016.06.042

> <PMID>
27371925

> <PubChem AID>


> <Patent Number>


> <Authors>
Jeankumar, VU; Reshma, RS; Vats, R; Janupally, R; Saxena, S; Yogeeswari, P; Sriram, D

> <Institution>
Birla Institute of Technology&amp; Science-Pilani

> <Link to Ligand in BindingDB>
http://www.bindingdb.org/bind/chemsearch/marvin/MolStructure.jsp?monomerid=50202204

> <Link to Ligand-Target Pair in BindingDB>
http://www.bindingdb.org/jsp/dbsearch/PrimarySearch_ki.jsp?energyterm=kJ/mole&tag=pol&polymerid=50006452&target=DNA+gyrase+subunit+B&column=ki&startPg=0&Increment=50&submit=Search

> <Link to Ligand-Target Pair in BindingDB>
http://www.bindingdb.org/jsp/dbsearch/PrimarySearch_ki.jsp?energyterm=kJ/mole&tag=r21&monomerid=50202204&enzyme=DNA+gyrase+subunit+B&column=ki&startPg=0&Increment=50&submit=Search

> <Ligand HET ID in PDB>


> <PDB ID(s) for Ligand-Target Complex>


> <PubChem CID>
86910083

> <PubChem SID>
375979585

> <ChEBI ID of Ligand>


> <ChEMBL ID of Ligand>


> <DrugBank ID of Ligand>


> <IUPHAR_GRAC ID of Ligand>


> <KEGG ID of Ligand>


> <ZINC ID of Ligand>


> <Number of Protein Chains in Target (>1 implies a multichain complex)>
1

> <BindingDB Target Chain Sequence>
MAAQKNNAPKEYGADSITILEGLEAVRKRPGMYIGSTGERGLHHLIWEVVDNAVDEAMAGFATRVDVKIHADGSVEVRDDGRGIPVEMHATGMPTIDVVMTQLHAGGKFDGETYAVSGGLHGVGVSVVNALSTRLEATVLRDGYEWFQYYDRSVPGKLKQGGETKETGTTIRFWADPEIFETTDYNFETVARRLQEMAFLNKGLTIELTDERVTAEEVVDDVVKDTAEAPKTADEKAAEATGPSKVKHRVFHYPGGLVDYVKHINRTKTPIQQSIIDFDGKGPGHEVEIAMQWNAGYSESVHTFANTINTHEGGTHEEGFRAALTSVVNRYAKDKKLLKDKDPNLTGDDIREGLAAVISVKVAEPQFEGQTKTKLGNTEVKSFVQKICNEQLQHWFEANPAEAKTVVNKAVSSAQARIAARKARELVRRKSATDIGGLPGKLADCRSTDPSKSELYVVEGDSAGGSAKSGRDSMFQAILPLRGKIINVEKARIDRVLKNTEVQSIITALGTGIHDEFDISKLRYHKIVLMADADVDGQHISTLLLTLLFRFMKPLVENGHIFLAQPPLYKLKWQRSEPEFAYSDRERDGLLEAGRAAGKKINVDDGIQRYKGLGEMDAKELWETTMDPSVRVLRQVTLDDAAAADELFSILMGEDVEARRSFITRNAKDVRFLDV

> <PDB ID(s) of Target Chain>
4BAE

> <UniProt (SwissProt) Recommended Name of Target Chain>
DNA gyrase subunit B

> <UniProt (SwissProt) Entry Name of Target Chain>
GYRB_MYCSM

> <UniProt (SwissProt) Primary ID of Target Chain>
P0C559

> <UniProt (SwissProt) Secondary ID(s) of Target Chain>
P48355,Q59555

> <UniProt (SwissProt) Alternative ID(s) of Target Chain>


> <UniProt (TrEMBL) Submitted Name of Target Chain>


> <UniProt (TrEMBL) Entry Name of Target Chain>


> <UniProt (TrEMBL) Primary ID of Target Chain>


> <UniProt (TrEMBL) Secondary ID(s) of Target Chain>


> <UniProt (TrEMBL) Alternative ID(s) of Target Chain>


$$$$

  Mrv0541 04171609262D          

 29 32  0  0  0  0            999 V2000
   -1.4361    0.4117    0.0000 C   0  0  0  0  0  0  0  0  0  0  0  0
   -1.4361   -0.4117    0.0000 C   0  0  0  0  0  0  0  0  0  0  0  0
   -0.7130   -0.8235    0.0000 C   0  0  0  0  0  0  0  0  0  0  0  0
   -0.7130    0.8235    0.0000 C   0  0  0  0  0  0  0  0  0  0  0  0
    0.0000    0.4117    0.0000 C   0  0  0  0  0  0  0  0  0  0  0  0
    0.0000   -0.4117    0.0000 C   0  0  0  0  0  0  0  0  0  0  0  0
    0.7130   -0.8235    0.0000 N   0  0  0  0  0  0  0  0  0  0  0  0
    1.4261   -0.4117    0.0000 C   0  0  0  0  0  0  0  0  0  0  0  0
    1.4261    0.4117    0.0000 C   0  0  0  0  0  0  0  0  0  0  0  0
    0.7130    0.8235    0.0000 C   0  0  0  0  0  0  0  0  0  0  0  0
    0.7130    1.6489    0.0000 N   0  0  0  0  0  0  0  0  0  0  0  0
   -0.0008    2.0627    0.0000 C   0  0  0  0  0  0  0  0  0  0  0  0
    0.0006    2.8877    0.0000 C   0  0  0  0  0  0  0  0  0  0  0  0
    0.7158    3.2990    0.0000 C   0  0  0  0  0  0  0  0  0  0  0  0
    1.4296    2.8853    0.0000 C   0  0  0  0  0  0  0  0  0  0  0  0
    1.4282    2.0603    0.0000 C   0  0  0  0  0  0  0  0  0  0  0  0
    0.7188    4.1245    0.0000 N   0  0  0  0  0  0  0  0  0  0  0  0
    1.4350    4.5350    0.0000 C   0  0  0  0  0  0  0  0  0  0  0  0
    2.0054    4.2031    0.0000 S   0  0  0  0  0  0  0  0  0  0  0  0
    1.4380    5.3604    0.0000 N   0  0  0  0  0  0  0  0  0  0  0  0
    2.1541    5.7709    0.0000 C   0  0  0  0  0  0  0  0  0  0  0  0
    2.1584    6.5960    0.0000 C   0  0  0  0  0  0  0  0  0  0  0  0
    2.8750    7.0048    0.0000 C   0  0  0  0  0  0  0  0  0  0  0  0
    3.5873    6.5887    0.0000 C   0  0  0  0  0  0  0  0  0  0  0  0
    3.5831    5.7637    0.0000 C   0  0  0  0  0  0  0  0  0  0  0  0
    2.8666    5.3548    0.0000 C   0  0  0  0  0  0  0  0  0  0  0  0
    1.9977   -0.7417    0.0000 C   0  0  0  0  0  0  0  0  0  0  0  0
    4.1606    6.9157    0.0000 F   0  0  0  0  0  0  0  0  0  0  0  0
   -2.0067    0.7434    0.0000 F   0  0  0  0  0  0  0  0  0  0  0  0
  1  2  4  0  0  0  0
  2  3  4  0  0  0  0
  3  6  4  0  0  0  0
  5  4  4  0  0  0  0
  4  1  4  0  0  0  0
  5  6  4  0  0  0  0
  6  7  4  0  0  0  0
  7  8  4  0  0  0  0
  8  9  4  0  0  0  0
  9 10  4  0  0  0  0
 10  5  4  0  0  0  0
 11 12  1  0  0  0  0
 11 16  1  0  0  0  0
 12 13  1  0  0  0  0
 13 14  1  0  0  0  0
 14 15  1  0  0  0  0
 15 16  1  0  0  0  0
 10 11  1  0  0  0  0
 14 17  1  0  0  0  0
 17 18  1  0  0  0  0
 18 19  2  0  0  0  0
 18 20  1  0  0  0  0
 20 21  1  0  0  0  0
 21 22  4  0  0  0  0
 22 23  4  0  0  0  0
 23 24  4  0  0  0  0
 24 25  4  0  0  0  0
 25 26  4  0  0  0  0
 26 21  4  0  0  0  0
  8 27  1  0  0  0  0
 24 28  1  0  0  0  0
  1 29  1  0  0  0  0
M  END
> <From> 
www.bindingDB.org

> <BindingDB Reactant_set_id>
50303829

> <Ligand InChI>
InChI=1S/C22H22F2N4S/c1-14-12-21(19-13-16(24)4-7-20(19)25-14)28-10-8-18(9-11-28)27-22(29)26-17-5-2-15(23)3-6-17/h2-7,12-13,18H,8-11H2,1H3,(H2,26,27,29)

> <Ligand InChI Key>
AGTZJQXFLYVYLX-UHFFFAOYSA-N

> <BindingDB MonomerID>
50067158

> <BindingDB Ligand Name>
CHEMBL3403279

> <Target Name Assigned by Curator or DataSource>
DNA gyrase subunit B

> <Target Source Organism According to Curator or DataSource>


> <Ki (nM)>


> <IC50 (nM)>
 45920

> <Kd (nM)>


> <EC50 (nM)>


> <kon (M-1-s-1)>


> <koff (s-1)>


> <pH>


> <Temp C>


> <Curation/DataSource>
ChEMBL

> <Article DOI>
10.1016/j.bmc.2015.03.004

> <PMID>
25801151

> <PubChem AID>


> <Patent Number>


> <Authors>
Medapi, B; Renuka, J; Saxena, S; Sridevi, JP; Medishetti, R; Kulkarni, P; Yogeeswari, P; Sriram, D

> <Institution>
Birla Institute of Technology&amp; Science-Pilani

> <Link to Ligand in BindingDB>
http://www.bindingdb.org/bind/chemsearch/marvin/MolStructure.jsp?monomerid=50067158

> <Link to Ligand-Target Pair in BindingDB>
http://www.bindingdb.org/jsp/dbsearch/PrimarySearch_ki.jsp?energyterm=kJ/mole&tag=pol&polymerid=50006452&target=DNA+gyrase+subunit+B&column=ki&startPg=0&Increment=50&submit=Search

> <Link to Ligand-Target Pair in BindingDB>
http://www.bindingdb.org/jsp/dbsearch/PrimarySearch_ki.jsp?energyterm=kJ/mole&tag=r21&monomerid=50067158&enzyme=DNA+gyrase+subunit+B&column=ki&startPg=0&Increment=50&submit=Search

> <Ligand HET ID in PDB>


> <PDB ID(s) for Ligand-Target Complex>


> <PubChem CID>
118729695

> <PubChem SID>
313071788

> <ChEBI ID of Ligand>


> <ChEMBL ID of Ligand>


> <DrugBank ID of Ligand>


> <IUPHAR_GRAC ID of Ligand>


> <KEGG ID of Ligand>


> <ZINC ID of Ligand>


> <Number of Protein Chains in Target (>1 implies a multichain complex)>
1

> <BindingDB Target Chain Sequence>
MAAQKNNAPKEYGADSITILEGLEAVRKRPGMYIGSTGERGLHHLIWEVVDNAVDEAMAGFATRVDVKIHADGSVEVRDDGRGIPVEMHATGMPTIDVVMTQLHAGGKFDGETYAVSGGLHGVGVSVVNALSTRLEATVLRDGYEWFQYYDRSVPGKLKQGGETKETGTTIRFWADPEIFETTDYNFETVARRLQEMAFLNKGLTIELTDERVTAEEVVDDVVKDTAEAPKTADEKAAEATGPSKVKHRVFHYPGGLVDYVKHINRTKTPIQQSIIDFDGKGPGHEVEIAMQWNAGYSESVHTFANTINTHEGGTHEEGFRAALTSVVNRYAKDKKLLKDKDPNLTGDDIREGLAAVISVKVAEPQFEGQTKTKLGNTEVKSFVQKICNEQLQHWFEANPAEAKTVVNKAVSSAQARIAARKARELVRRKSATDIGGLPGKLADCRSTDPSKSELYVVEGDSAGGSAKSGRDSMFQAILPLRGKIINVEKARIDRVLKNTEVQSIITALGTGIHDEFDISKLRYHKIVLMADADVDGQHISTLLLTLLFRFMKPLVENGHIFLAQPPLYKLKWQRSEPEFAYSDRERDGLLEAGRAAGKKINVDDGIQRYKGLGEMDAKELWETTMDPSVRVLRQVTLDDAAAADELFSILMGEDVEARRSFITRNAKDVRFLDV

> <PDB ID(s) of Target Chain>
4BAE

> <UniProt (SwissProt) Recommended Name of Target Chain>
DNA gyrase subunit B

> <UniProt (SwissProt) Entry Name of Target Chain>
GYRB_MYCSM

> <UniProt (SwissProt) Primary ID of Target Chain>
P0C559

> <UniProt (SwissProt) Secondary ID(s) of Target Chain>
P48355,Q59555

> <UniProt (SwissProt) Alternative ID(s) of Target Chain>


> <UniProt (TrEMBL) Submitted Name of Target Chain>


> <UniProt (TrEMBL) Entry Name of Target Chain>


> <UniProt (TrEMBL) Primary ID of Target Chain>


> <UniProt (TrEMBL) Secondary ID(s) of Target Chain>


> <UniProt (TrEMBL) Alternative ID(s) of Target Chain>


$$$$

  Mrv0541 03201611132D          

 25 28  0  0  0  0            999 V2000
   27.8294  -24.8080    0.0000 N   0  0  0  0  0  0  0  0  0  0  0  0
   27.2172  -25.3611    0.0000 C   0  0  0  0  0  0  0  0  0  0  0  0
   26.4325  -25.1040    0.0000 C   0  0  0  0  0  0  0  0  0  0  0  0
   26.2643  -24.2980    0.0000 N   0  0  0  0  0  0  0  0  0  0  0  0
   26.8766  -23.7490    0.0000 C   0  0  0  0  0  0  0  0  0  0  0  0
   27.6612  -24.0020    0.0000 C   0  0  0  0  0  0  0  0  0  0  0  0
   28.6140  -25.0652    0.0000 C   0  0  0  0  0  0  0  0  0  0  0  0
   29.2305  -24.5121    0.0000 N   0  0  0  0  0  0  0  0  0  0  0  0
   28.7865  -25.8711    0.0000 S   0  0  0  0  0  0  0  0  0  0  0  0
   30.0254  -24.7273    0.0000 C   0  0  0  0  0  0  0  0  0  0  0  0
   30.6093  -24.1434    0.0000 C   0  0  0  0  0  0  0  0  0  0  0  0
   30.3983  -23.3443    0.0000 C   0  0  0  0  0  0  0  0  0  0  0  0
   30.9780  -22.7604    0.0000 C   0  0  0  0  0  0  0  0  0  0  0  0
   31.7770  -22.9756    0.0000 C   0  0  0  0  0  0  0  0  0  0  0  0
   31.9880  -23.7747    0.0000 C   0  0  0  0  0  0  0  0  0  0  0  0
   31.4042  -24.3544    0.0000 C   0  0  0  0  0  0  0  0  0  0  0  0
   24.1447  -24.0450    0.0000 S   0  0  0  0  0  0  0  0  0  0  0  0
   24.8101  -24.5298    0.0000 N   0  0  0  0  0  0  0  0  0  0  0  0
   25.4755  -24.0450    0.0000 C   0  0  0  0  0  0  0  0  0  0  0  0
   25.2226  -23.2604    0.0000 C   0  0  0  0  0  0  0  0  0  0  0  0
   24.3976  -23.2604    0.0000 C   0  0  0  0  0  0  0  0  0  0  0  0
   23.9851  -22.5445    0.0000 C   0  0  0  0  0  0  0  0  0  0  0  0
   24.3976  -21.8328    0.0000 C   0  0  0  0  0  0  0  0  0  0  0  0
   25.2226  -21.8328    0.0000 C   0  0  0  0  0  0  0  0  0  0  0  0
   25.6351  -22.5445    0.0000 C   0  0  0  0  0  0  0  0  0  0  0  0
  1  2  1  0  0  0  0
  2  3  1  0  0  0  0
  3  4  1  0  0  0  0
  4  5  1  0  0  0  0
  5  6  1  0  0  0  0
  1  6  1  0  0  0  0
  7  8  1  0  0  0  0
  7  9  2  0  0  0  0
  1  7  1  0  0  0  0
 10 11  1  0  0  0  0
 11 12  4  0  0  0  0
 12 13  4  0  0  0  0
 13 14  4  0  0  0  0
 14 15  4  0  0  0  0
 15 16  4  0  0  0  0
 11 16  4  0  0  0  0
  8 10  1  0  0  0  0
 17 18  4  0  0  0  0
 18 19  4  0  0  0  0
 19 20  4  0  0  0  0
 20 21  4  0  0  0  0
 17 21  4  0  0  0  0
 22 23  4  0  0  0  0
 23 24  4  0  0  0  0
 24 25  4  0  0  0  0
 20 25  4  0  0  0  0
 21 22  4  0  0  0  0
  4 19  1  0  0  0  0
M  END
> <From> 
www.bindingDB.org

> <BindingDB Reactant_set_id>
50254213

> <Ligand InChI>
InChI=1S/C19H20N4S2/c24-19(20-14-15-6-2-1-3-7-15)23-12-10-22(11-13-23)18-16-8-4-5-9-17(16)25-21-18/h1-9H,10-14H2,(H,20,24)

> <Ligand InChI Key>
DEKHFYYVWGZWQC-UHFFFAOYSA-N

> <BindingDB MonomerID>
50037195

> <BindingDB Ligand Name>
CHEMBL3355808

> <Target Name Assigned by Curator or DataSource>
DNA gyrase subunit B

> <Target Source Organism According to Curator or DataSource>


> <Ki (nM)>


> <IC50 (nM)>
 45970

> <Kd (nM)>


> <EC50 (nM)>


> <kon (M-1-s-1)>


> <koff (s-1)>


> <pH>


> <Temp C>


> <Curation/DataSource>
ChEMBL

> <Article DOI>
10.1016/j.bmc.2014.10.016

> <PMID>
25456076

> <PubChem AID>


> <Patent Number>


> <Authors>
Reddy, KI; Srihari, K; Renuka, J; Sree, KS; Chuppala, A; Jeankumar, VU; Sridevi, JP; Babu, KS; Yogeeswari, P; Sriram, D

> <Institution>
TBA

> <Link to Ligand in BindingDB>
http://www.bindingdb.org/bind/chemsearch/marvin/MolStructure.jsp?monomerid=50037195

> <Link to Ligand-Target Pair in BindingDB>
http://www.bindingdb.org/jsp/dbsearch/PrimarySearch_ki.jsp?energyterm=kJ/mole&tag=pol&polymerid=50006452&target=DNA+gyrase+subunit+B&column=ki&startPg=0&Increment=50&submit=Search

> <Link to Ligand-Target Pair in BindingDB>
http://www.bindingdb.org/jsp/dbsearch/PrimarySearch_ki.jsp?energyterm=kJ/mole&tag=r21&monomerid=50037195&enzyme=DNA+gyrase+subunit+B&column=ki&startPg=0&Increment=50&submit=Search

> <Ligand HET ID in PDB>


> <PDB ID(s) for Ligand-Target Complex>


> <PubChem CID>
118721103

> <PubChem SID>
313067072

> <ChEBI ID of Ligand>


> <ChEMBL ID of Ligand>


> <DrugBank ID of Ligand>


> <IUPHAR_GRAC ID of Ligand>


> <KEGG ID of Ligand>


> <ZINC ID of Ligand>


> <Number of Protein Chains in Target (>1 implies a multichain complex)>
1

> <BindingDB Target Chain Sequence>
MAAQKNNAPKEYGADSITILEGLEAVRKRPGMYIGSTGERGLHHLIWEVVDNAVDEAMAGFATRVDVKIHADGSVEVRDDGRGIPVEMHATGMPTIDVVMTQLHAGGKFDGETYAVSGGLHGVGVSVVNALSTRLEATVLRDGYEWFQYYDRSVPGKLKQGGETKETGTTIRFWADPEIFETTDYNFETVARRLQEMAFLNKGLTIELTDERVTAEEVVDDVVKDTAEAPKTADEKAAEATGPSKVKHRVFHYPGGLVDYVKHINRTKTPIQQSIIDFDGKGPGHEVEIAMQWNAGYSESVHTFANTINTHEGGTHEEGFRAALTSVVNRYAKDKKLLKDKDPNLTGDDIREGLAAVISVKVAEPQFEGQTKTKLGNTEVKSFVQKICNEQLQHWFEANPAEAKTVVNKAVSSAQARIAARKARELVRRKSATDIGGLPGKLADCRSTDPSKSELYVVEGDSAGGSAKSGRDSMFQAILPLRGKIINVEKARIDRVLKNTEVQSIITALGTGIHDEFDISKLRYHKIVLMADADVDGQHISTLLLTLLFRFMKPLVENGHIFLAQPPLYKLKWQRSEPEFAYSDRERDGLLEAGRAAGKKINVDDGIQRYKGLGEMDAKELWETTMDPSVRVLRQVTLDDAAAADELFSILMGEDVEARRSFITRNAKDVRFLDV

> <PDB ID(s) of Target Chain>
4BAE

> <UniProt (SwissProt) Recommended Name of Target Chain>
DNA gyrase subunit B

> <UniProt (SwissProt) Entry Name of Target Chain>
GYRB_MYCSM

> <UniProt (SwissProt) Primary ID of Target Chain>
P0C559

> <UniProt (SwissProt) Secondary ID(s) of Target Chain>
P48355,Q59555

> <UniProt (SwissProt) Alternative ID(s) of Target Chain>


> <UniProt (TrEMBL) Submitted Name of Target Chain>


> <UniProt (TrEMBL) Entry Name of Target Chain>


> <UniProt (TrEMBL) Primary ID of Target Chain>


> <UniProt (TrEMBL) Secondary ID(s) of Target Chain>


> <UniProt (TrEMBL) Alternative ID(s) of Target Chain>


$$$$

  SciTegic04201612532D

 35 38  0  0  0  0            999 V2000
   -1.2964    1.4973    0.0000 N   0  0
   -2.6111    0.7486    0.0000 C   0  0
   -2.6111   -0.7486    0.0000 C   0  0
   -1.2964   -1.4973    0.0000 C   0  0
    0.0000   -0.7486    0.0000 C   0  0
    1.2964   -1.4973    0.0000 C   0  0
    2.5929   -0.7486    0.0000 C   0  0
    2.5929    0.7486    0.0000 C   0  0
    1.2964    1.4973    0.0000 C   0  0
    0.0000    0.7486    0.0000 C   0  0
   -3.9122   -1.4966    0.0000 C   0  0
   -3.9138   -2.4966    0.0000 O   0  0
   -5.2109   -0.7445    0.0000 N   0  0
   -1.2907   -2.9981    0.0000 N   0  0
   -2.5870   -3.7544    0.0000 C   0  0
   -2.5835   -5.2544    0.0000 C   0  0
   -3.8807   -6.0076    0.0000 C   0  0
   -5.1815   -5.2608    0.0000 C   0  0
   -5.1852   -3.7608    0.0000 C   0  0
   -3.8880   -3.0076    0.0000 C   0  0
   -6.4810   -6.0117    0.0000 N   0  0
   -7.7815   -5.2626    0.0000 C   0  0
   -9.0810   -6.0135    0.0000 C   0  0
  -10.3815   -5.2644    0.0000 C   0  0
  -14.2755   -7.5217    0.0000 O   0  0
  -14.2791   -6.0217    0.0000 C   0  0
  -12.9819   -5.2686    0.0000 C   0  0
  -11.6810   -6.0154    0.0000 N   0  0
  -11.6774   -7.5154    0.0000 C   0  0
  -12.9746   -8.2686    0.0000 C   0  0
   -6.2513   -1.3425    0.0000 N   0  0
    3.8926   -1.4991    0.0000 C   0  0
    3.8934   -2.6991    0.0000 F   0  0
    4.9317   -0.8987    0.0000 F   0  0
    4.9322   -2.0986    0.0000 F   0  0
  1  2  2  0
  2  3  1  0
  3  4  2  0
  4  5  1  0
  5  6  2  0
  6  7  1  0
  7  8  2  0
  8  9  1  0
  9 10  2  0
  1 10  1  0
  5 10  1  0
 11 12  2  0
 11 13  1  0
  3 11  1  0
 15 16  1  0
 16 17  2  0
 17 18  1  0
 18 19  2  0
 19 20  1  0
 15 20  2  0
 22 23  1  0
 23 24  1  0
 21 22  1  0
 25 26  1  0
 26 27  1  0
 27 28  1  0
 28 29  1  0
 29 30  1  0
 25 30  1  0
 24 28  1  0
 18 21  1  0
 14 15  1  0
  4 14  1  0
 13 31  1  0
 32 33  1  0
 32 34  1  0
 32 35  1  0
  7 32  1  0
M  END
> <From> 
www.bindingDB.org

> <BindingDB Reactant_set_id>
50426771

> <Ligand InChI>
InChI=1S/C24H27F3N6O2/c25-24(26,27)16-2-7-21-19(14-16)22(20(15-30-21)23(34)32-28)31-18-5-3-17(4-6-18)29-8-1-9-33-10-12-35-13-11-33/h2-7,14-15,29H,1,8-13,28H2,(H,30,31)(H,32,34)

> <Ligand InChI Key>
NQENCVLHNRXXDX-UHFFFAOYSA-N

> <BindingDB MonomerID>
50126762

> <BindingDB Ligand Name>
CHEMBL3627728

> <Target Name Assigned by Curator or DataSource>
DNA gyrase subunit B

> <Target Source Organism According to Curator or DataSource>


> <Ki (nM)>


> <IC50 (nM)>
 47250

> <Kd (nM)>


> <EC50 (nM)>


> <kon (M-1-s-1)>


> <koff (s-1)>


> <pH>


> <Temp C>


> <Curation/DataSource>
ChEMBL

> <Article DOI>
10.1016/j.ejmech.2015.06.032

> <PMID>
26318054

> <PubChem AID>


> <Patent Number>


> <Authors>
Medapi, B; Suryadevara, P; Renuka, J; Sridevi, JP; Yogeeswari, P; Sriram, D

> <Institution>
Birla Institute of Technology&amp;Science

> <Link to Ligand in BindingDB>
http://www.bindingdb.org/bind/chemsearch/marvin/MolStructure.jsp?monomerid=50126762

> <Link to Ligand-Target Pair in BindingDB>
http://www.bindingdb.org/jsp/dbsearch/PrimarySearch_ki.jsp?energyterm=kJ/mole&tag=pol&polymerid=50006452&target=DNA+gyrase+subunit+B&column=ki&startPg=0&Increment=50&submit=Search

> <Link to Ligand-Target Pair in BindingDB>
http://www.bindingdb.org/jsp/dbsearch/PrimarySearch_ki.jsp?energyterm=kJ/mole&tag=r21&monomerid=50126762&enzyme=DNA+gyrase+subunit+B&column=ki&startPg=0&Increment=50&submit=Search

> <Ligand HET ID in PDB>


> <PDB ID(s) for Ligand-Target Complex>


> <PubChem CID>
122193460

> <PubChem SID>
104018836

> <ChEBI ID of Ligand>


> <ChEMBL ID of Ligand>
CHEMBL29971

> <DrugBank ID of Ligand>


> <IUPHAR_GRAC ID of Ligand>


> <KEGG ID of Ligand>


> <ZINC ID of Ligand>
ZINC13494066

> <Number of Protein Chains in Target (>1 implies a multichain complex)>
1

> <BindingDB Target Chain Sequence>
MAAQKNNAPKEYGADSITILEGLEAVRKRPGMYIGSTGERGLHHLIWEVVDNAVDEAMAGFATRVDVKIHADGSVEVRDDGRGIPVEMHATGMPTIDVVMTQLHAGGKFDGETYAVSGGLHGVGVSVVNALSTRLEATVLRDGYEWFQYYDRSVPGKLKQGGETKETGTTIRFWADPEIFETTDYNFETVARRLQEMAFLNKGLTIELTDERVTAEEVVDDVVKDTAEAPKTADEKAAEATGPSKVKHRVFHYPGGLVDYVKHINRTKTPIQQSIIDFDGKGPGHEVEIAMQWNAGYSESVHTFANTINTHEGGTHEEGFRAALTSVVNRYAKDKKLLKDKDPNLTGDDIREGLAAVISVKVAEPQFEGQTKTKLGNTEVKSFVQKICNEQLQHWFEANPAEAKTVVNKAVSSAQARIAARKARELVRRKSATDIGGLPGKLADCRSTDPSKSELYVVEGDSAGGSAKSGRDSMFQAILPLRGKIINVEKARIDRVLKNTEVQSIITALGTGIHDEFDISKLRYHKIVLMADADVDGQHISTLLLTLLFRFMKPLVENGHIFLAQPPLYKLKWQRSEPEFAYSDRERDGLLEAGRAAGKKINVDDGIQRYKGLGEMDAKELWETTMDPSVRVLRQVTLDDAAAADELFSILMGEDVEARRSFITRNAKDVRFLDV

> <PDB ID(s) of Target Chain>
4BAE

> <UniProt (SwissProt) Recommended Name of Target Chain>
DNA gyrase subunit B

> <UniProt (SwissProt) Entry Name of Target Chain>
GYRB_MYCSM

> <UniProt (SwissProt) Primary ID of Target Chain>
P0C559

> <UniProt (SwissProt) Secondary ID(s) of Target Chain>
P48355,Q59555

> <UniProt (SwissProt) Alternative ID(s) of Target Chain>


> <UniProt (TrEMBL) Submitted Name of Target Chain>


> <UniProt (TrEMBL) Entry Name of Target Chain>


> <UniProt (TrEMBL) Primary ID of Target Chain>


> <UniProt (TrEMBL) Secondary ID(s) of Target Chain>


> <UniProt (TrEMBL) Alternative ID(s) of Target Chain>


$$$$

  SciTegic10231714372D

 30 33  0  0  0  0            999 V2000
    2.4667  -10.4130    0.0000 C   0  0
    2.4655  -11.2325    0.0000 C   0  0
    3.1736  -11.6415    0.0000 C   0  0
    3.1718  -10.0041    0.0000 C   0  0
    3.8804  -10.4094    0.0000 C   0  0
    3.8852  -11.2325    0.0000 C   0  0
    4.6696  -11.4823    0.0000 N   0  0
    5.1496  -10.8135    0.0000 C   0  0
    4.6618  -10.1505    0.0000 C   0  0
    4.9097   -9.3718    0.0000 O   0  0
    5.9668  -10.8087    0.0000 O   0  0
    4.9266  -12.2581    0.0000 C   0  0
    4.3834  -12.8685    0.0000 C   0  0
    4.6404  -13.6442    0.0000 N   0  0
    4.1000  -14.2530    0.0000 C   0  0
    4.3541  -15.0260    0.0000 C   0  0
    5.1539  -15.1954    0.0000 N   0  0
    5.6992  -14.5855    0.0000 C   0  0
    5.4448  -13.8062    0.0000 C   0  0
    5.4080  -15.9721    0.0000 N   0  0
    6.2077  -16.1403    0.0000 C   0  0
    6.7532  -15.5319    0.0000 C   0  0
    7.5650  -15.6143    0.0000 C   0  0
    7.8959  -14.8671    0.0000 C   0  0
    7.2874  -14.3215    0.0000 C   0  0
    6.5806  -14.7316    0.0000 O   0  0
    7.3676  -13.5059    0.0000 N   0  3
    6.7055  -13.0269    0.0000 O   0  0
    8.1134  -13.1719    0.0000 O   0  5
    1.7589  -10.0045    0.0000 Cl  0  0
  1  2  2  0
  2  3  1  0
  3  6  2  0
  5  4  2  0
  4  1  1  0
  5  6  1  0
  6  7  1  0
  7  8  1  0
  8  9  1  0
  9  5  1  0
  9 10  2  0
  8 11  2  0
  7 12  1  0
 12 13  1  0
 13 14  1  0
 14 15  1  0
 14 19  1  0
 15 16  1  0
 16 17  1  0
 17 18  1  0
 18 19  1  0
 17 20  1  0
 20 21  1  0
 21 22  1  0
 22 23  2  0
 23 24  1  0
 24 25  2  0
 25 26  1  0
 26 22  1  0
 27 28  2  0
 27 29  1  0
 25 27  1  0
  1 30  1  0
M  CHG  2  27   1  29  -1
M  END
> <From> 
www.bindingDB.org

> <BindingDB Reactant_set_id>
50543817

> <Ligand InChI>
InChI=1S/C19H20ClN5O5/c20-13-1-3-16-15(11-13)18(26)19(27)24(16)10-7-22-5-8-23(9-6-22)21-12-14-2-4-17(30-14)25(28)29/h1-4,11,21H,5-10,12H2

> <Ligand InChI Key>
LOOVAQMRPVGATN-UHFFFAOYSA-N

> <BindingDB MonomerID>
50208284

> <BindingDB Ligand Name>
CHEMBL3884288

> <Target Name Assigned by Curator or DataSource>
DNA gyrase subunit B

> <Target Source Organism According to Curator or DataSource>


> <Ki (nM)>


> <IC50 (nM)>
 47500

> <Kd (nM)>


> <EC50 (nM)>


> <kon (M-1-s-1)>


> <koff (s-1)>


> <pH>


> <Temp C>


> <Curation/DataSource>
ChEMBL

> <Article DOI>
10.1016/j.ejmech.2016.08.034

> <PMID>
27569197

> <PubChem AID>


> <Patent Number>


> <Authors>
Chaudhari, K; Surana, S; Jain, P; Patel, HM

> <Institution>
R. C. Patel Institute of Pharmaceutical Education and Research

> <Link to Ligand in BindingDB>
http://www.bindingdb.org/bind/chemsearch/marvin/MolStructure.jsp?monomerid=50208284

> <Link to Ligand-Target Pair in BindingDB>
http://www.bindingdb.org/jsp/dbsearch/PrimarySearch_ki.jsp?energyterm=kJ/mole&tag=pol&polymerid=50006452&target=DNA+gyrase+subunit+B&column=ki&startPg=0&Increment=50&submit=Search

> <Link to Ligand-Target Pair in BindingDB>
http://www.bindingdb.org/jsp/dbsearch/PrimarySearch_ki.jsp?energyterm=kJ/mole&tag=r21&monomerid=50208284&enzyme=DNA+gyrase+subunit+B&column=ki&startPg=0&Increment=50&submit=Search

> <Ligand HET ID in PDB>


> <PDB ID(s) for Ligand-Target Complex>


> <PubChem CID>
134130394

> <PubChem SID>
375981977

> <ChEBI ID of Ligand>


> <ChEMBL ID of Ligand>


> <DrugBank ID of Ligand>


> <IUPHAR_GRAC ID of Ligand>


> <KEGG ID of Ligand>


> <ZINC ID of Ligand>


> <Number of Protein Chains in Target (>1 implies a multichain complex)>
1

> <BindingDB Target Chain Sequence>
MAAQKNNAPKEYGADSITILEGLEAVRKRPGMYIGSTGERGLHHLIWEVVDNAVDEAMAGFATRVDVKIHADGSVEVRDDGRGIPVEMHATGMPTIDVVMTQLHAGGKFDGETYAVSGGLHGVGVSVVNALSTRLEATVLRDGYEWFQYYDRSVPGKLKQGGETKETGTTIRFWADPEIFETTDYNFETVARRLQEMAFLNKGLTIELTDERVTAEEVVDDVVKDTAEAPKTADEKAAEATGPSKVKHRVFHYPGGLVDYVKHINRTKTPIQQSIIDFDGKGPGHEVEIAMQWNAGYSESVHTFANTINTHEGGTHEEGFRAALTSVVNRYAKDKKLLKDKDPNLTGDDIREGLAAVISVKVAEPQFEGQTKTKLGNTEVKSFVQKICNEQLQHWFEANPAEAKTVVNKAVSSAQARIAARKARELVRRKSATDIGGLPGKLADCRSTDPSKSELYVVEGDSAGGSAKSGRDSMFQAILPLRGKIINVEKARIDRVLKNTEVQSIITALGTGIHDEFDISKLRYHKIVLMADADVDGQHISTLLLTLLFRFMKPLVENGHIFLAQPPLYKLKWQRSEPEFAYSDRERDGLLEAGRAAGKKINVDDGIQRYKGLGEMDAKELWETTMDPSVRVLRQVTLDDAAAADELFSILMGEDVEARRSFITRNAKDVRFLDV

> <PDB ID(s) of Target Chain>
4BAE

> <UniProt (SwissProt) Recommended Name of Target Chain>
DNA gyrase subunit B

> <UniProt (SwissProt) Entry Name of Target Chain>
GYRB_MYCSM

> <UniProt (SwissProt) Primary ID of Target Chain>
P0C559

> <UniProt (SwissProt) Secondary ID(s) of Target Chain>
P48355,Q59555

> <UniProt (SwissProt) Alternative ID(s) of Target Chain>


> <UniProt (TrEMBL) Submitted Name of Target Chain>


> <UniProt (TrEMBL) Entry Name of Target Chain>


> <UniProt (TrEMBL) Primary ID of Target Chain>


> <UniProt (TrEMBL) Secondary ID(s) of Target Chain>


> <UniProt (TrEMBL) Alternative ID(s) of Target Chain>


$$$$

  Mrv0541 04171609262D          

 34 37  0  0  0  0            999 V2000
   -1.4361    0.4117    0.0000 C   0  0  0  0  0  0  0  0  0  0  0  0
   -1.4361   -0.4117    0.0000 C   0  0  0  0  0  0  0  0  0  0  0  0
   -0.7130   -0.8235    0.0000 C   0  0  0  0  0  0  0  0  0  0  0  0
   -0.7130    0.8235    0.0000 C   0  0  0  0  0  0  0  0  0  0  0  0
    0.0000    0.4117    0.0000 C   0  0  0  0  0  0  0  0  0  0  0  0
    0.0000   -0.4117    0.0000 C   0  0  0  0  0  0  0  0  0  0  0  0
    0.7130   -0.8235    0.0000 N   0  0  0  0  0  0  0  0  0  0  0  0
    1.4261   -0.4117    0.0000 C   0  0  0  0  0  0  0  0  0  0  0  0
    1.4261    0.4117    0.0000 C   0  0  0  0  0  0  0  0  0  0  0  0
    0.7130    0.8235    0.0000 C   0  0  0  0  0  0  0  0  0  0  0  0
    0.7130    1.6489    0.0000 N   0  0  0  0  0  0  0  0  0  0  0  0
   -0.0008    2.0627    0.0000 C   0  0  0  0  0  0  0  0  0  0  0  0
    0.0006    2.8877    0.0000 C   0  0  0  0  0  0  0  0  0  0  0  0
    0.7158    3.2990    0.0000 C   0  0  0  0  0  0  0  0  0  0  0  0
    1.4296    2.8853    0.0000 C   0  0  0  0  0  0  0  0  0  0  0  0
    1.4282    2.0603    0.0000 C   0  0  0  0  0  0  0  0  0  0  0  0
    0.7188    4.1245    0.0000 N   0  0  0  0  0  0  0  0  0  0  0  0
    1.4350    4.5350    0.0000 C   0  0  0  0  0  0  0  0  0  0  0  0
    2.0054    4.2031    0.0000 O   0  0  0  0  0  0  0  0  0  0  0  0
    1.4380    5.3604    0.0000 N   0  0  0  0  0  0  0  0  0  0  0  0
    2.1541    5.7709    0.0000 C   0  0  0  0  0  0  0  0  0  0  0  0
    2.1584    6.5960    0.0000 C   0  0  0  0  0  0  0  0  0  0  0  0
    2.8750    7.0048    0.0000 C   0  0  0  0  0  0  0  0  0  0  0  0
    3.5873    6.5887    0.0000 C   0  0  0  0  0  0  0  0  0  0  0  0
    3.5831    5.7637    0.0000 C   0  0  0  0  0  0  0  0  0  0  0  0
    2.8666    5.3548    0.0000 C   0  0  0  0  0  0  0  0  0  0  0  0
    1.9977   -0.7417    0.0000 C   0  0  0  0  0  0  0  0  0  0  0  0
   -2.1508    0.8246    0.0000 C   0  0  0  0  0  0  0  0  0  0  0  0
   -2.7227    0.4950    0.0000 F   0  0  0  0  0  0  0  0  0  0  0  0
   -2.1506    1.4846    0.0000 F   0  0  0  0  0  0  0  0  0  0  0  0
   -2.7222    1.1549    0.0000 F   0  0  0  0  0  0  0  0  0  0  0  0
    4.3051    6.9962    0.0000 N   0  3  0  0  0  0  0  0  0  0  0  0
    4.8746    6.6626    0.0000 O   0  0  0  0  0  0  0  0  0  0  0  0
    4.3096    7.6562    0.0000 O   0  5  0  0  0  0  0  0  0  0  0  0
  1  2  4  0  0  0  0
  2  3  4  0  0  0  0
  3  6  4  0  0  0  0
  5  4  4  0  0  0  0
  4  1  4  0  0  0  0
  5  6  4  0  0  0  0
  6  7  4  0  0  0  0
  7  8  4  0  0  0  0
  8  9  4  0  0  0  0
  9 10  4  0  0  0  0
 10  5  4  0  0  0  0
 11 12  1  0  0  0  0
 11 16  1  0  0  0  0
 12 13  1  0  0  0  0
 13 14  1  0  0  0  0
 14 15  1  0  0  0  0
 15 16  1  0  0  0  0
 10 11  1  0  0  0  0
 14 17  1  0  0  0  0
 17 18  1  0  0  0  0
 18 19  2  0  0  0  0
 18 20  1  0  0  0  0
 20 21  1  0  0  0  0
 21 22  4  0  0  0  0
 22 23  4  0  0  0  0
 23 24  4  0  0  0  0
 24 25  4  0  0  0  0
 25 26  4  0  0  0  0
 26 21  4  0  0  0  0
  8 27  1  0  0  0  0
  1 28  1  0  0  0  0
 28 29  1  0  0  0  0
 28 30  1  0  0  0  0
 28 31  1  0  0  0  0
 32 33  2  0  0  0  0
 32 34  1  0  0  0  0
 24 32  1  0  0  0  0
M  CHG  2  32   1  34  -1
M  END
> <From> 
www.bindingDB.org

> <BindingDB Reactant_set_id>
50303846

> <Ligand InChI>
InChI=1S/C23H22F3N5O3/c1-14-12-21(19-13-15(23(24,25)26)2-7-20(19)27-14)30-10-8-17(9-11-30)29-22(32)28-16-3-5-18(6-4-16)31(33)34/h2-7,12-13,17H,8-11H2,1H3,(H2,28,29,32)

> <Ligand InChI Key>
LXWDKUKDFRUFNJ-UHFFFAOYSA-N

> <BindingDB MonomerID>
50067142

> <BindingDB Ligand Name>
CHEMBL3403263

> <Target Name Assigned by Curator or DataSource>
DNA gyrase subunit B

> <Target Source Organism According to Curator or DataSource>


> <Ki (nM)>


> <IC50 (nM)>
 47630

> <Kd (nM)>


> <EC50 (nM)>


> <kon (M-1-s-1)>


> <koff (s-1)>


> <pH>


> <Temp C>


> <Curation/DataSource>
ChEMBL

> <Article DOI>
10.1016/j.bmc.2015.03.004

> <PMID>
25801151

> <PubChem AID>


> <Patent Number>


> <Authors>
Medapi, B; Renuka, J; Saxena, S; Sridevi, JP; Medishetti, R; Kulkarni, P; Yogeeswari, P; Sriram, D

> <Institution>
Birla Institute of Technology&amp; Science-Pilani

> <Link to Ligand in BindingDB>
http://www.bindingdb.org/bind/chemsearch/marvin/MolStructure.jsp?monomerid=50067142

> <Link to Ligand-Target Pair in BindingDB>
http://www.bindingdb.org/jsp/dbsearch/PrimarySearch_ki.jsp?energyterm=kJ/mole&tag=pol&polymerid=50006452&target=DNA+gyrase+subunit+B&column=ki&startPg=0&Increment=50&submit=Search

> <Link to Ligand-Target Pair in BindingDB>
http://www.bindingdb.org/jsp/dbsearch/PrimarySearch_ki.jsp?energyterm=kJ/mole&tag=r21&monomerid=50067142&enzyme=DNA+gyrase+subunit+B&column=ki&startPg=0&Increment=50&submit=Search

> <Ligand HET ID in PDB>


> <PDB ID(s) for Ligand-Target Complex>


> <PubChem CID>
118729679

> <PubChem SID>
313071773

> <ChEBI ID of Ligand>


> <ChEMBL ID of Ligand>


> <DrugBank ID of Ligand>


> <IUPHAR_GRAC ID of Ligand>


> <KEGG ID of Ligand>


> <ZINC ID of Ligand>


> <Number of Protein Chains in Target (>1 implies a multichain complex)>
1

> <BindingDB Target Chain Sequence>
MAAQKNNAPKEYGADSITILEGLEAVRKRPGMYIGSTGERGLHHLIWEVVDNAVDEAMAGFATRVDVKIHADGSVEVRDDGRGIPVEMHATGMPTIDVVMTQLHAGGKFDGETYAVSGGLHGVGVSVVNALSTRLEATVLRDGYEWFQYYDRSVPGKLKQGGETKETGTTIRFWADPEIFETTDYNFETVARRLQEMAFLNKGLTIELTDERVTAEEVVDDVVKDTAEAPKTADEKAAEATGPSKVKHRVFHYPGGLVDYVKHINRTKTPIQQSIIDFDGKGPGHEVEIAMQWNAGYSESVHTFANTINTHEGGTHEEGFRAALTSVVNRYAKDKKLLKDKDPNLTGDDIREGLAAVISVKVAEPQFEGQTKTKLGNTEVKSFVQKICNEQLQHWFEANPAEAKTVVNKAVSSAQARIAARKARELVRRKSATDIGGLPGKLADCRSTDPSKSELYVVEGDSAGGSAKSGRDSMFQAILPLRGKIINVEKARIDRVLKNTEVQSIITALGTGIHDEFDISKLRYHKIVLMADADVDGQHISTLLLTLLFRFMKPLVENGHIFLAQPPLYKLKWQRSEPEFAYSDRERDGLLEAGRAAGKKINVDDGIQRYKGLGEMDAKELWETTMDPSVRVLRQVTLDDAAAADELFSILMGEDVEARRSFITRNAKDVRFLDV

> <PDB ID(s) of Target Chain>
4BAE

> <UniProt (SwissProt) Recommended Name of Target Chain>
DNA gyrase subunit B

> <UniProt (SwissProt) Entry Name of Target Chain>
GYRB_MYCSM

> <UniProt (SwissProt) Primary ID of Target Chain>
P0C559

> <UniProt (SwissProt) Secondary ID(s) of Target Chain>
P48355,Q59555

> <UniProt (SwissProt) Alternative ID(s) of Target Chain>


> <UniProt (TrEMBL) Submitted Name of Target Chain>


> <UniProt (TrEMBL) Entry Name of Target Chain>


> <UniProt (TrEMBL) Primary ID of Target Chain>


> <UniProt (TrEMBL) Secondary ID(s) of Target Chain>


> <UniProt (TrEMBL) Alternative ID(s) of Target Chain>


$$$$

  Mrv0541 04171609262D          

 32 35  0  0  0  0            999 V2000
   -1.4361    0.4117    0.0000 C   0  0  0  0  0  0  0  0  0  0  0  0
   -1.4361   -0.4117    0.0000 C   0  0  0  0  0  0  0  0  0  0  0  0
   -0.7130   -0.8235    0.0000 C   0  0  0  0  0  0  0  0  0  0  0  0
   -0.7130    0.8235    0.0000 C   0  0  0  0  0  0  0  0  0  0  0  0
    0.0000    0.4117    0.0000 C   0  0  0  0  0  0  0  0  0  0  0  0
    0.0000   -0.4117    0.0000 C   0  0  0  0  0  0  0  0  0  0  0  0
    0.7130   -0.8235    0.0000 N   0  0  0  0  0  0  0  0  0  0  0  0
    1.4261   -0.4117    0.0000 C   0  0  0  0  0  0  0  0  0  0  0  0
    1.4261    0.4117    0.0000 C   0  0  0  0  0  0  0  0  0  0  0  0
    0.7130    0.8235    0.0000 C   0  0  0  0  0  0  0  0  0  0  0  0
    0.7130    1.6489    0.0000 N   0  0  0  0  0  0  0  0  0  0  0  0
   -0.0008    2.0627    0.0000 C   0  0  0  0  0  0  0  0  0  0  0  0
    0.0006    2.8877    0.0000 C   0  0  0  0  0  0  0  0  0  0  0  0
    0.7158    3.2990    0.0000 C   0  0  0  0  0  0  0  0  0  0  0  0
    1.4296    2.8853    0.0000 C   0  0  0  0  0  0  0  0  0  0  0  0
    1.4282    2.0603    0.0000 C   0  0  0  0  0  0  0  0  0  0  0  0
    0.7188    4.1245    0.0000 N   0  0  0  0  0  0  0  0  0  0  0  0
    1.4350    4.5350    0.0000 C   0  0  0  0  0  0  0  0  0  0  0  0
    2.0054    4.2031    0.0000 S   0  0  0  0  0  0  0  0  0  0  0  0
    1.4380    5.3604    0.0000 N   0  0  0  0  0  0  0  0  0  0  0  0
    2.1541    5.7709    0.0000 C   0  0  0  0  0  0  0  0  0  0  0  0
    2.1584    6.5960    0.0000 C   0  0  0  0  0  0  0  0  0  0  0  0
    2.8750    7.0048    0.0000 C   0  0  0  0  0  0  0  0  0  0  0  0
    3.5873    6.5887    0.0000 C   0  0  0  0  0  0  0  0  0  0  0  0
    3.5831    5.7637    0.0000 C   0  0  0  0  0  0  0  0  0  0  0  0
    2.8666    5.3548    0.0000 C   0  0  0  0  0  0  0  0  0  0  0  0
    1.9977   -0.7417    0.0000 C   0  0  0  0  0  0  0  0  0  0  0  0
   -2.1508    0.8246    0.0000 C   0  0  0  0  0  0  0  0  0  0  0  0
   -2.7227    0.4950    0.0000 F   0  0  0  0  0  0  0  0  0  0  0  0
   -2.1506    1.4846    0.0000 F   0  0  0  0  0  0  0  0  0  0  0  0
   -2.7222    1.1549    0.0000 F   0  0  0  0  0  0  0  0  0  0  0  0
    4.1606    6.9157    0.0000 F   0  0  0  0  0  0  0  0  0  0  0  0
  1  2  4  0  0  0  0
  2  3  4  0  0  0  0
  3  6  4  0  0  0  0
  5  4  4  0  0  0  0
  4  1  4  0  0  0  0
  5  6  4  0  0  0  0
  6  7  4  0  0  0  0
  7  8  4  0  0  0  0
  8  9  4  0  0  0  0
  9 10  4  0  0  0  0
 10  5  4  0  0  0  0
 11 12  1  0  0  0  0
 11 16  1  0  0  0  0
 12 13  1  0  0  0  0
 13 14  1  0  0  0  0
 14 15  1  0  0  0  0
 15 16  1  0  0  0  0
 10 11  1  0  0  0  0
 14 17  1  0  0  0  0
 17 18  1  0  0  0  0
 18 19  2  0  0  0  0
 18 20  1  0  0  0  0
 20 21  1  0  0  0  0
 21 22  4  0  0  0  0
 22 23  4  0  0  0  0
 23 24  4  0  0  0  0
 24 25  4  0  0  0  0
 25 26  4  0  0  0  0
 26 21  4  0  0  0  0
  8 27  1  0  0  0  0
  1 28  1  0  0  0  0
 28 29  1  0  0  0  0
 28 30  1  0  0  0  0
 28 31  1  0  0  0  0
 24 32  1  0  0  0  0
M  END
> <From> 
www.bindingDB.org

> <BindingDB Reactant_set_id>
50303825

> <Ligand InChI>
InChI=1S/C23H22F4N4S/c1-14-12-21(19-13-15(23(25,26)27)2-7-20(19)28-14)31-10-8-18(9-11-31)30-22(32)29-17-5-3-16(24)4-6-17/h2-7,12-13,18H,8-11H2,1H3,(H2,29,30,32)

> <Ligand InChI Key>
HMGNIPALDNYXNK-UHFFFAOYSA-N

> <BindingDB MonomerID>
50067164

> <BindingDB Ligand Name>
CHEMBL3403284

> <Target Name Assigned by Curator or DataSource>
DNA gyrase subunit B

> <Target Source Organism According to Curator or DataSource>


> <Ki (nM)>


> <IC50 (nM)>
 48500

> <Kd (nM)>


> <EC50 (nM)>


> <kon (M-1-s-1)>


> <koff (s-1)>


> <pH>


> <Temp C>


> <Curation/DataSource>
ChEMBL

> <Article DOI>
10.1016/j.bmc.2015.03.004

> <PMID>
25801151

> <PubChem AID>


> <Patent Number>


> <Authors>
Medapi, B; Renuka, J; Saxena, S; Sridevi, JP; Medishetti, R; Kulkarni, P; Yogeeswari, P; Sriram, D

> <Institution>
Birla Institute of Technology&amp; Science-Pilani

> <Link to Ligand in BindingDB>
http://www.bindingdb.org/bind/chemsearch/marvin/MolStructure.jsp?monomerid=50067164

> <Link to Ligand-Target Pair in BindingDB>
http://www.bindingdb.org/jsp/dbsearch/PrimarySearch_ki.jsp?energyterm=kJ/mole&tag=pol&polymerid=50006452&target=DNA+gyrase+subunit+B&column=ki&startPg=0&Increment=50&submit=Search

> <Link to Ligand-Target Pair in BindingDB>
http://www.bindingdb.org/jsp/dbsearch/PrimarySearch_ki.jsp?energyterm=kJ/mole&tag=r21&monomerid=50067164&enzyme=DNA+gyrase+subunit+B&column=ki&startPg=0&Increment=50&submit=Search

> <Ligand HET ID in PDB>


> <PDB ID(s) for Ligand-Target Complex>


> <PubChem CID>
118729701

> <PubChem SID>
313071793

> <ChEBI ID of Ligand>


> <ChEMBL ID of Ligand>


> <DrugBank ID of Ligand>


> <IUPHAR_GRAC ID of Ligand>


> <KEGG ID of Ligand>


> <ZINC ID of Ligand>


> <Number of Protein Chains in Target (>1 implies a multichain complex)>
1

> <BindingDB Target Chain Sequence>
MAAQKNNAPKEYGADSITILEGLEAVRKRPGMYIGSTGERGLHHLIWEVVDNAVDEAMAGFATRVDVKIHADGSVEVRDDGRGIPVEMHATGMPTIDVVMTQLHAGGKFDGETYAVSGGLHGVGVSVVNALSTRLEATVLRDGYEWFQYYDRSVPGKLKQGGETKETGTTIRFWADPEIFETTDYNFETVARRLQEMAFLNKGLTIELTDERVTAEEVVDDVVKDTAEAPKTADEKAAEATGPSKVKHRVFHYPGGLVDYVKHINRTKTPIQQSIIDFDGKGPGHEVEIAMQWNAGYSESVHTFANTINTHEGGTHEEGFRAALTSVVNRYAKDKKLLKDKDPNLTGDDIREGLAAVISVKVAEPQFEGQTKTKLGNTEVKSFVQKICNEQLQHWFEANPAEAKTVVNKAVSSAQARIAARKARELVRRKSATDIGGLPGKLADCRSTDPSKSELYVVEGDSAGGSAKSGRDSMFQAILPLRGKIINVEKARIDRVLKNTEVQSIITALGTGIHDEFDISKLRYHKIVLMADADVDGQHISTLLLTLLFRFMKPLVENGHIFLAQPPLYKLKWQRSEPEFAYSDRERDGLLEAGRAAGKKINVDDGIQRYKGLGEMDAKELWETTMDPSVRVLRQVTLDDAAAADELFSILMGEDVEARRSFITRNAKDVRFLDV

> <PDB ID(s) of Target Chain>
4BAE

> <UniProt (SwissProt) Recommended Name of Target Chain>
DNA gyrase subunit B

> <UniProt (SwissProt) Entry Name of Target Chain>
GYRB_MYCSM

> <UniProt (SwissProt) Primary ID of Target Chain>
P0C559

> <UniProt (SwissProt) Secondary ID(s) of Target Chain>
P48355,Q59555

> <UniProt (SwissProt) Alternative ID(s) of Target Chain>


> <UniProt (TrEMBL) Submitted Name of Target Chain>


> <UniProt (TrEMBL) Entry Name of Target Chain>


> <UniProt (TrEMBL) Primary ID of Target Chain>


> <UniProt (TrEMBL) Secondary ID(s) of Target Chain>


> <UniProt (TrEMBL) Alternative ID(s) of Target Chain>


$$$$

  Mrv0541 04171609262D          

 25 27  0  0  0  0            999 V2000
    0.7145   -0.4125    0.0000 C   0  0  0  0  0  0  0  0  0  0  0  0
    0.7145    0.4125    0.0000 C   0  0  0  0  0  0  0  0  0  0  0  0
    0.0000    0.8250    0.0000 C   0  0  0  0  0  0  0  0  0  0  0  0
   -0.7145    0.4125    0.0000 C   0  0  0  0  0  0  0  0  0  0  0  0
   -0.7145   -0.4125    0.0000 C   0  0  0  0  0  0  0  0  0  0  0  0
    0.0000   -0.8250    0.0000 C   0  0  0  0  0  0  0  0  0  0  0  0
   -1.4293   -0.8252    0.0000 C   0  0  0  0  0  0  0  0  0  0  0  0
   -2.1731   -0.4848    0.0000 S   0  0  0  0  0  0  0  0  0  0  0  0
   -2.7242   -1.0988    0.0000 C   0  0  0  0  0  0  0  0  0  0  0  0
   -2.3106   -1.8127    0.0000 C   0  0  0  0  0  0  0  0  0  0  0  0
   -1.5039   -1.6398    0.0000 C   0  0  0  0  0  0  0  0  0  0  0  0
   -2.6429   -2.5667    0.0000 C   0  0  0  0  0  0  0  0  0  0  0  0
   -2.2534   -3.0994    0.0000 O   0  0  0  0  0  0  0  0  0  0  0  0
   -3.2991   -2.6378    0.0000 N   0  0  0  0  0  0  0  0  0  0  0  0
   -3.5437   -1.0123    0.0000 N   0  0  0  0  0  0  0  0  0  0  0  0
   -3.8796   -0.2582    0.0000 C   0  0  0  0  0  0  0  0  0  0  0  0
   -4.7005   -0.1715    0.0000 N   0  0  0  0  0  0  0  0  0  0  0  0
   -3.4915    0.2757    0.0000 S   0  0  0  0  0  0  0  0  0  0  0  0
   -5.0363    0.5825    0.0000 C   0  0  0  0  0  0  0  0  0  0  0  0
   -5.8566    0.6703    0.0000 C   0  0  0  0  0  0  0  0  0  0  0  0
   -6.1908    1.4246    0.0000 C   0  0  0  0  0  0  0  0  0  0  0  0
   -5.7046    2.0912    0.0000 C   0  0  0  0  0  0  0  0  0  0  0  0
   -4.8843    2.0034    0.0000 C   0  0  0  0  0  0  0  0  0  0  0  0
   -4.5501    1.2491    0.0000 C   0  0  0  0  0  0  0  0  0  0  0  0
   -5.9719    2.6946    0.0000 F   0  0  0  0  0  0  0  0  0  0  0  0
  1  2  4  0  0  0  0
  2  3  4  0  0  0  0
  3  4  4  0  0  0  0
  4  5  4  0  0  0  0
  5  6  4  0  0  0  0
  6  1  4  0  0  0  0
  7  8  4  0  0  0  0
  8  9  4  0  0  0  0
  9 10  4  0  0  0  0
 10 11  4  0  0  0  0
 11  7  4  0  0  0  0
  5  7  1  0  0  0  0
 10 12  1  0  0  0  0
 12 13  2  0  0  0  0
 12 14  1  0  0  0  0
  9 15  1  0  0  0  0
 15 16  1  0  0  0  0
 16 17  1  0  0  0  0
 16 18  2  0  0  0  0
 17 19  1  0  0  0  0
 19 20  4  0  0  0  0
 20 21  4  0  0  0  0
 21 22  4  0  0  0  0
 22 23  4  0  0  0  0
 23 24  4  0  0  0  0
 24 19  4  0  0  0  0
 22 25  1  0  0  0  0
M  END
> <From> 
www.bindingDB.org

> <BindingDB Reactant_set_id>
50302326

> <Ligand InChI>
InChI=1S/C18H14FN3OS2/c19-12-6-8-13(9-7-12)21-18(24)22-17-14(16(20)23)10-15(25-17)11-4-2-1-3-5-11/h1-10H,(H2,20,23)(H2,21,22,24)

> <Ligand InChI Key>
YXDSOEPXVJCKBM-UHFFFAOYSA-N

> <BindingDB MonomerID>
50066093

> <BindingDB Ligand Name>
CHEMBL3402939

> <Target Name Assigned by Curator or DataSource>
DNA gyrase subunit B

> <Target Source Organism According to Curator or DataSource>


> <Ki (nM)>


> <IC50 (nM)>
 48910

> <Kd (nM)>


> <EC50 (nM)>


> <kon (M-1-s-1)>


> <koff (s-1)>


> <pH>


> <Temp C>
25.00

> <Curation/DataSource>
ChEMBL

> <Article DOI>
10.1016/j.bmc.2015.02.032

> <PMID>
25766629

> <PubChem AID>


> <Patent Number>


> <Authors>
Saxena, S; Samala, G; Renuka, J; Sridevi, JP; Yogeeswari, P; Sriram, D

> <Institution>
Birla Institute of Technology&amp; Science-Pilani

> <Link to Ligand in BindingDB>
http://www.bindingdb.org/bind/chemsearch/marvin/MolStructure.jsp?monomerid=50066093

> <Link to Ligand-Target Pair in BindingDB>
http://www.bindingdb.org/jsp/dbsearch/PrimarySearch_ki.jsp?energyterm=kJ/mole&tag=pol&polymerid=50006452&target=DNA+gyrase+subunit+B&column=ki&startPg=0&Increment=50&submit=Search

> <Link to Ligand-Target Pair in BindingDB>
http://www.bindingdb.org/jsp/dbsearch/PrimarySearch_ki.jsp?energyterm=kJ/mole&tag=r21&monomerid=50066093&enzyme=DNA+gyrase+subunit+B&column=ki&startPg=0&Increment=50&submit=Search

> <Ligand HET ID in PDB>


> <PDB ID(s) for Ligand-Target Complex>


> <PubChem CID>
118729464

> <PubChem SID>
313071617

> <ChEBI ID of Ligand>


> <ChEMBL ID of Ligand>


> <DrugBank ID of Ligand>


> <IUPHAR_GRAC ID of Ligand>


> <KEGG ID of Ligand>


> <ZINC ID of Ligand>


> <Number of Protein Chains in Target (>1 implies a multichain complex)>
1

> <BindingDB Target Chain Sequence>
MAAQKNNAPKEYGADSITILEGLEAVRKRPGMYIGSTGERGLHHLIWEVVDNAVDEAMAGFATRVDVKIHADGSVEVRDDGRGIPVEMHATGMPTIDVVMTQLHAGGKFDGETYAVSGGLHGVGVSVVNALSTRLEATVLRDGYEWFQYYDRSVPGKLKQGGETKETGTTIRFWADPEIFETTDYNFETVARRLQEMAFLNKGLTIELTDERVTAEEVVDDVVKDTAEAPKTADEKAAEATGPSKVKHRVFHYPGGLVDYVKHINRTKTPIQQSIIDFDGKGPGHEVEIAMQWNAGYSESVHTFANTINTHEGGTHEEGFRAALTSVVNRYAKDKKLLKDKDPNLTGDDIREGLAAVISVKVAEPQFEGQTKTKLGNTEVKSFVQKICNEQLQHWFEANPAEAKTVVNKAVSSAQARIAARKARELVRRKSATDIGGLPGKLADCRSTDPSKSELYVVEGDSAGGSAKSGRDSMFQAILPLRGKIINVEKARIDRVLKNTEVQSIITALGTGIHDEFDISKLRYHKIVLMADADVDGQHISTLLLTLLFRFMKPLVENGHIFLAQPPLYKLKWQRSEPEFAYSDRERDGLLEAGRAAGKKINVDDGIQRYKGLGEMDAKELWETTMDPSVRVLRQVTLDDAAAADELFSILMGEDVEARRSFITRNAKDVRFLDV

> <PDB ID(s) of Target Chain>
4BAE

> <UniProt (SwissProt) Recommended Name of Target Chain>
DNA gyrase subunit B

> <UniProt (SwissProt) Entry Name of Target Chain>
GYRB_MYCSM

> <UniProt (SwissProt) Primary ID of Target Chain>
P0C559

> <UniProt (SwissProt) Secondary ID(s) of Target Chain>
P48355,Q59555

> <UniProt (SwissProt) Alternative ID(s) of Target Chain>


> <UniProt (TrEMBL) Submitted Name of Target Chain>


> <UniProt (TrEMBL) Entry Name of Target Chain>


> <UniProt (TrEMBL) Primary ID of Target Chain>


> <UniProt (TrEMBL) Secondary ID(s) of Target Chain>


> <UniProt (TrEMBL) Alternative ID(s) of Target Chain>


$$$$

  Mrv0541 04171609262D          

 29 32  0  0  0  0            999 V2000
   -1.4361    0.4117    0.0000 C   0  0  0  0  0  0  0  0  0  0  0  0
   -1.4361   -0.4117    0.0000 C   0  0  0  0  0  0  0  0  0  0  0  0
   -0.7130   -0.8235    0.0000 C   0  0  0  0  0  0  0  0  0  0  0  0
   -0.7130    0.8235    0.0000 C   0  0  0  0  0  0  0  0  0  0  0  0
    0.0000    0.4117    0.0000 C   0  0  0  0  0  0  0  0  0  0  0  0
    0.0000   -0.4117    0.0000 C   0  0  0  0  0  0  0  0  0  0  0  0
    0.7130   -0.8235    0.0000 N   0  0  0  0  0  0  0  0  0  0  0  0
    1.4261   -0.4117    0.0000 C   0  0  0  0  0  0  0  0  0  0  0  0
    1.4261    0.4117    0.0000 C   0  0  0  0  0  0  0  0  0  0  0  0
    0.7130    0.8235    0.0000 C   0  0  0  0  0  0  0  0  0  0  0  0
    0.7130    1.6489    0.0000 N   0  0  0  0  0  0  0  0  0  0  0  0
   -0.0008    2.0627    0.0000 C   0  0  0  0  0  0  0  0  0  0  0  0
    0.0006    2.8877    0.0000 C   0  0  0  0  0  0  0  0  0  0  0  0
    0.7158    3.2990    0.0000 C   0  0  0  0  0  0  0  0  0  0  0  0
    1.4296    2.8853    0.0000 C   0  0  0  0  0  0  0  0  0  0  0  0
    1.4282    2.0603    0.0000 C   0  0  0  0  0  0  0  0  0  0  0  0
    0.7188    4.1245    0.0000 N   0  0  0  0  0  0  0  0  0  0  0  0
    1.4350    4.5350    0.0000 C   0  0  0  0  0  0  0  0  0  0  0  0
    2.0054    4.2031    0.0000 O   0  0  0  0  0  0  0  0  0  0  0  0
    1.4380    5.3604    0.0000 N   0  0  0  0  0  0  0  0  0  0  0  0
    2.1541    5.7709    0.0000 C   0  0  0  0  0  0  0  0  0  0  0  0
    2.1584    6.5960    0.0000 C   0  0  0  0  0  0  0  0  0  0  0  0
    2.8750    7.0048    0.0000 C   0  0  0  0  0  0  0  0  0  0  0  0
    3.5873    6.5887    0.0000 C   0  0  0  0  0  0  0  0  0  0  0  0
    3.5831    5.7637    0.0000 C   0  0  0  0  0  0  0  0  0  0  0  0
    2.8666    5.3548    0.0000 C   0  0  0  0  0  0  0  0  0  0  0  0
    1.9977   -0.7417    0.0000 C   0  0  0  0  0  0  0  0  0  0  0  0
    4.1606    6.9157    0.0000 Cl  0  0  0  0  0  0  0  0  0  0  0  0
   -2.0067    0.7434    0.0000 F   0  0  0  0  0  0  0  0  0  0  0  0
  1  2  4  0  0  0  0
  2  3  4  0  0  0  0
  3  6  4  0  0  0  0
  5  4  4  0  0  0  0
  4  1  4  0  0  0  0
  5  6  4  0  0  0  0
  6  7  4  0  0  0  0
  7  8  4  0  0  0  0
  8  9  4  0  0  0  0
  9 10  4  0  0  0  0
 10  5  4  0  0  0  0
 11 12  1  0  0  0  0
 11 16  1  0  0  0  0
 12 13  1  0  0  0  0
 13 14  1  0  0  0  0
 14 15  1  0  0  0  0
 15 16  1  0  0  0  0
 10 11  1  0  0  0  0
 14 17  1  0  0  0  0
 17 18  1  0  0  0  0
 18 19  2  0  0  0  0
 18 20  1  0  0  0  0
 20 21  1  0  0  0  0
 21 22  4  0  0  0  0
 22 23  4  0  0  0  0
 23 24  4  0  0  0  0
 24 25  4  0  0  0  0
 25 26  4  0  0  0  0
 26 21  4  0  0  0  0
  8 27  1  0  0  0  0
 24 28  1  0  0  0  0
  1 29  1  0  0  0  0
M  END
> <From> 
www.bindingDB.org

> <BindingDB Reactant_set_id>
50303803

> <Ligand InChI>
InChI=1S/C22H22ClFN4O/c1-14-12-21(19-13-16(24)4-7-20(19)25-14)28-10-8-18(9-11-28)27-22(29)26-17-5-2-15(23)3-6-17/h2-7,12-13,18H,8-11H2,1H3,(H2,26,27,29)

> <Ligand InChI Key>
HHEFHXUOBAEOPB-UHFFFAOYSA-N

> <BindingDB MonomerID>
50066971

> <BindingDB Ligand Name>
CHEMBL3403256

> <Target Name Assigned by Curator or DataSource>
DNA gyrase subunit B

> <Target Source Organism According to Curator or DataSource>


> <Ki (nM)>


> <IC50 (nM)>
 48980

> <Kd (nM)>


> <EC50 (nM)>


> <kon (M-1-s-1)>


> <koff (s-1)>


> <pH>


> <Temp C>


> <Curation/DataSource>
ChEMBL

> <Article DOI>
10.1016/j.bmc.2015.03.004

> <PMID>
25801151

> <PubChem AID>


> <Patent Number>


> <Authors>
Medapi, B; Renuka, J; Saxena, S; Sridevi, JP; Medishetti, R; Kulkarni, P; Yogeeswari, P; Sriram, D

> <Institution>
Birla Institute of Technology&amp; Science-Pilani

> <Link to Ligand in BindingDB>
http://www.bindingdb.org/bind/chemsearch/marvin/MolStructure.jsp?monomerid=50066971

> <Link to Ligand-Target Pair in BindingDB>
http://www.bindingdb.org/jsp/dbsearch/PrimarySearch_ki.jsp?energyterm=kJ/mole&tag=pol&polymerid=50006452&target=DNA+gyrase+subunit+B&column=ki&startPg=0&Increment=50&submit=Search

> <Link to Ligand-Target Pair in BindingDB>
http://www.bindingdb.org/jsp/dbsearch/PrimarySearch_ki.jsp?energyterm=kJ/mole&tag=r21&monomerid=50066971&enzyme=DNA+gyrase+subunit+B&column=ki&startPg=0&Increment=50&submit=Search

> <Ligand HET ID in PDB>


> <PDB ID(s) for Ligand-Target Complex>


> <PubChem CID>
118729672

> <PubChem SID>
313071770

> <ChEBI ID of Ligand>


> <ChEMBL ID of Ligand>


> <DrugBank ID of Ligand>


> <IUPHAR_GRAC ID of Ligand>


> <KEGG ID of Ligand>


> <ZINC ID of Ligand>


> <Number of Protein Chains in Target (>1 implies a multichain complex)>
1

> <BindingDB Target Chain Sequence>
MAAQKNNAPKEYGADSITILEGLEAVRKRPGMYIGSTGERGLHHLIWEVVDNAVDEAMAGFATRVDVKIHADGSVEVRDDGRGIPVEMHATGMPTIDVVMTQLHAGGKFDGETYAVSGGLHGVGVSVVNALSTRLEATVLRDGYEWFQYYDRSVPGKLKQGGETKETGTTIRFWADPEIFETTDYNFETVARRLQEMAFLNKGLTIELTDERVTAEEVVDDVVKDTAEAPKTADEKAAEATGPSKVKHRVFHYPGGLVDYVKHINRTKTPIQQSIIDFDGKGPGHEVEIAMQWNAGYSESVHTFANTINTHEGGTHEEGFRAALTSVVNRYAKDKKLLKDKDPNLTGDDIREGLAAVISVKVAEPQFEGQTKTKLGNTEVKSFVQKICNEQLQHWFEANPAEAKTVVNKAVSSAQARIAARKARELVRRKSATDIGGLPGKLADCRSTDPSKSELYVVEGDSAGGSAKSGRDSMFQAILPLRGKIINVEKARIDRVLKNTEVQSIITALGTGIHDEFDISKLRYHKIVLMADADVDGQHISTLLLTLLFRFMKPLVENGHIFLAQPPLYKLKWQRSEPEFAYSDRERDGLLEAGRAAGKKINVDDGIQRYKGLGEMDAKELWETTMDPSVRVLRQVTLDDAAAADELFSILMGEDVEARRSFITRNAKDVRFLDV

> <PDB ID(s) of Target Chain>
4BAE

> <UniProt (SwissProt) Recommended Name of Target Chain>
DNA gyrase subunit B

> <UniProt (SwissProt) Entry Name of Target Chain>
GYRB_MYCSM

> <UniProt (SwissProt) Primary ID of Target Chain>
P0C559

> <UniProt (SwissProt) Secondary ID(s) of Target Chain>
P48355,Q59555

> <UniProt (SwissProt) Alternative ID(s) of Target Chain>


> <UniProt (TrEMBL) Submitted Name of Target Chain>


> <UniProt (TrEMBL) Entry Name of Target Chain>


> <UniProt (TrEMBL) Primary ID of Target Chain>


> <UniProt (TrEMBL) Secondary ID(s) of Target Chain>


> <UniProt (TrEMBL) Alternative ID(s) of Target Chain>


$$$$

  Mrv0541 11241407232D          

 29 33  0  0  0  0            999 V2000
    1.3361    1.4744    0.0000 F   0  0  0  0  0  0  0  0  0  0  0  0
   -0.0929   -1.0006    0.0000 O   0  0  0  0  0  0  0  0  0  0  0  0
   -1.5218    2.2994    0.0000 O   0  0  0  0  0  0  0  0  0  0  0  0
   -2.9508    2.2994    0.0000 O   0  0  0  0  0  0  0  0  0  0  0  0
   -3.6652    1.0619    0.0000 O   0  0  0  0  0  0  0  0  0  0  0  0
    1.3361   -0.1756    0.0000 N   0  0  0  0  0  0  0  0  0  0  0  0
    3.4668   -0.4532    0.0000 N   0  0  0  0  0  0  0  0  0  0  0  0
   -1.5218   -0.1756    0.0000 N   0  0  0  0  0  0  0  0  0  0  0  0
    2.2293   -1.1676    0.0000 C   0  0  2  0  0  0  0  0  0  0  0  0
    2.6418   -0.4532    0.0000 C   0  0  1  0  0  0  0  0  0  0  0  0
    1.4223   -0.9961    0.0000 C   0  0  0  0  0  0  0  0  0  0  0  0
    2.0897    0.1599    0.0000 C   0  0  0  0  0  0  0  0  0  0  0  0
    2.6418   -1.8821    0.0000 C   0  0  0  0  0  0  0  0  0  0  0  0
   -1.5218   -1.0006    0.0000 C   0  0  0  0  0  0  0  0  0  0  0  0
    3.4668   -1.8821    0.0000 C   0  0  0  0  0  0  0  0  0  0  0  0
   -1.1093   -1.7151    0.0000 C   0  0  0  0  0  0  0  0  0  0  0  0
   -1.9343   -1.7151    0.0000 C   0  0  0  0  0  0  0  0  0  0  0  0
    3.8793   -1.1676    0.0000 C   0  0  0  0  0  0  0  0  0  0  0  0
    0.6216    0.2369    0.0000 C   0  0  0  0  0  0  0  0  0  0  0  0
   -0.8073    0.2369    0.0000 C   0  0  0  0  0  0  0  0  0  0  0  0
   -0.0929   -0.1756    0.0000 C   0  0  0  0  0  0  0  0  0  0  0  0
   -0.8073    1.0619    0.0000 C   0  0  0  0  0  0  0  0  0  0  0  0
    0.6216    1.0619    0.0000 C   0  0  0  0  0  0  0  0  0  0  0  0
   -2.2363    0.2369    0.0000 C   0  0  0  0  0  0  0  0  0  0  0  0
   -0.0929    1.4744    0.0000 C   0  0  0  0  0  0  0  0  0  0  0  0
   -2.2363    1.0619    0.0000 C   0  0  0  0  0  0  0  0  0  0  0  0
   -1.5218    1.4744    0.0000 C   0  0  0  0  0  0  0  0  0  0  0  0
   -2.9508    1.4744    0.0000 C   0  0  0  0  0  0  0  0  0  0  0  0
   -0.8073   -1.4131    0.0000 C   0  0  0  0  0  0  0  0  0  0  0  0
 23  1  1  0  0  0  0
 21  2  1  0  0  0  0
 29  2  1  0  0  0  0
 27  3  2  0  0  0  0
 28  4  1  0  0  0  0
 28  5  2  0  0  0  0
 11  6  1  0  0  0  0
 12  6  1  0  0  0  0
 19  6  1  0  0  0  0
 10  7  1  0  0  0  0
 18  7  1  0  0  0  0
 14  8  1  0  0  0  0
 20  8  1  0  0  0  0
 24  8  1  0  0  0  0
  9 10  1  0  0  0  0
  9 11  1  1  0  0  0
  9 13  1  0  0  0  0
 10 12  1  1  0  0  0
 13 15  1  0  0  0  0
 14 16  1  0  0  0  0
 14 17  1  0  0  0  0
 15 18  1  0  0  0  0
 16 17  1  0  0  0  0
 19 21  1  0  0  0  0
 19 23  2  0  0  0  0
 20 21  2  0  0  0  0
 20 22  1  0  0  0  0
 22 25  2  0  0  0  0
 22 27  1  0  0  0  0
 23 25  1  0  0  0  0
 24 26  2  0  0  0  0
 26 27  1  0  0  0  0
 26 28  1  0  0  0  0
M  END
> <From> 
www.bindingDB.org

> <BindingDB Reactant_set_id>
50303820

> <Ligand InChI>
InChI=1S/C21H24FN3O4/c1-29-20-17-13(19(26)14(21(27)28)9-25(17)12-4-5-12)7-15(22)18(20)24-8-11-3-2-6-23-16(11)10-24/h7,9,11-12,16,23H,2-6,8,10H2,1H3,(H,27,28)/t11-,16+/m0/s1

> <Ligand InChI Key>
FABPRXSRWADJSP-MEDUHNTESA-N

> <BindingDB MonomerID>
50366824

> <BindingDB Ligand Name>
Avelox::MOXIFLOXACIN

> <Target Name Assigned by Curator or DataSource>
DNA gyrase subunit B

> <Target Source Organism According to Curator or DataSource>


> <Ki (nM)>


> <IC50 (nM)>
>50000

> <Kd (nM)>


> <EC50 (nM)>


> <kon (M-1-s-1)>


> <koff (s-1)>


> <pH>


> <Temp C>


> <Curation/DataSource>
ChEMBL

> <Article DOI>
10.1016/j.bmc.2015.03.004

> <PMID>
25801151

> <PubChem AID>


> <Patent Number>


> <Authors>
Medapi, B; Renuka, J; Saxena, S; Sridevi, JP; Medishetti, R; Kulkarni, P; Yogeeswari, P; Sriram, D

> <Institution>
Birla Institute of Technology&amp; Science-Pilani

> <Link to Ligand in BindingDB>
http://www.bindingdb.org/bind/chemsearch/marvin/MolStructure.jsp?monomerid=50366824

> <Link to Ligand-Target Pair in BindingDB>
http://www.bindingdb.org/jsp/dbsearch/PrimarySearch_ki.jsp?energyterm=kJ/mole&tag=pol&polymerid=50006452&target=DNA+gyrase+subunit+B&column=ki&startPg=0&Increment=50&submit=Search

> <Link to Ligand-Target Pair in BindingDB>
http://www.bindingdb.org/jsp/dbsearch/PrimarySearch_ki.jsp?energyterm=kJ/mole&tag=r21&monomerid=50366824&enzyme=DNA+gyrase+subunit+B&column=ki&startPg=0&Increment=50&submit=Search

> <Ligand HET ID in PDB>
MFX

> <PDB ID(s) for Ligand-Target Complex>
2XKK,3FOF,4Z2C,4Z3O,5BS8,5BTA,5CDQ

> <PubChem CID>
152946

> <PubChem SID>
160845926

> <ChEBI ID of Ligand>
63611

> <ChEMBL ID of Ligand>


> <DrugBank ID of Ligand>
DB00218

> <IUPHAR_GRAC ID of Ligand>


> <KEGG ID of Ligand>


> <ZINC ID of Ligand>
ZINC03826253

> <Number of Protein Chains in Target (>1 implies a multichain complex)>
1

> <BindingDB Target Chain Sequence>
MAAQKNNAPKEYGADSITILEGLEAVRKRPGMYIGSTGERGLHHLIWEVVDNAVDEAMAGFATRVDVKIHADGSVEVRDDGRGIPVEMHATGMPTIDVVMTQLHAGGKFDGETYAVSGGLHGVGVSVVNALSTRLEATVLRDGYEWFQYYDRSVPGKLKQGGETKETGTTIRFWADPEIFETTDYNFETVARRLQEMAFLNKGLTIELTDERVTAEEVVDDVVKDTAEAPKTADEKAAEATGPSKVKHRVFHYPGGLVDYVKHINRTKTPIQQSIIDFDGKGPGHEVEIAMQWNAGYSESVHTFANTINTHEGGTHEEGFRAALTSVVNRYAKDKKLLKDKDPNLTGDDIREGLAAVISVKVAEPQFEGQTKTKLGNTEVKSFVQKICNEQLQHWFEANPAEAKTVVNKAVSSAQARIAARKARELVRRKSATDIGGLPGKLADCRSTDPSKSELYVVEGDSAGGSAKSGRDSMFQAILPLRGKIINVEKARIDRVLKNTEVQSIITALGTGIHDEFDISKLRYHKIVLMADADVDGQHISTLLLTLLFRFMKPLVENGHIFLAQPPLYKLKWQRSEPEFAYSDRERDGLLEAGRAAGKKINVDDGIQRYKGLGEMDAKELWETTMDPSVRVLRQVTLDDAAAADELFSILMGEDVEARRSFITRNAKDVRFLDV

> <PDB ID(s) of Target Chain>
4BAE

> <UniProt (SwissProt) Recommended Name of Target Chain>
DNA gyrase subunit B

> <UniProt (SwissProt) Entry Name of Target Chain>
GYRB_MYCSM

> <UniProt (SwissProt) Primary ID of Target Chain>
P0C559

> <UniProt (SwissProt) Secondary ID(s) of Target Chain>
P48355,Q59555

> <UniProt (SwissProt) Alternative ID(s) of Target Chain>


> <UniProt (TrEMBL) Submitted Name of Target Chain>


> <UniProt (TrEMBL) Entry Name of Target Chain>


> <UniProt (TrEMBL) Primary ID of Target Chain>


> <UniProt (TrEMBL) Secondary ID(s) of Target Chain>


> <UniProt (TrEMBL) Alternative ID(s) of Target Chain>


$$$$

  SciTegic04201612532D

 31 34  0  0  0  0            999 V2000
   -1.2964    1.4973    0.0000 N   0  0
   -2.6111    0.7486    0.0000 C   0  0
   -2.6111   -0.7486    0.0000 C   0  0
   -1.2964   -1.4973    0.0000 C   0  0
    0.0000   -0.7486    0.0000 C   0  0
    1.2964   -1.4973    0.0000 C   0  0
    2.5929   -0.7486    0.0000 C   0  0
    2.5929    0.7486    0.0000 C   0  0
    1.2964    1.4973    0.0000 C   0  0
    0.0000    0.7486    0.0000 C   0  0
   -3.9122   -1.4966    0.0000 C   0  0
   -3.9138   -2.4966    0.0000 O   0  0
   -5.2109   -0.7445    0.0000 N   0  0
   -1.2907   -2.9981    0.0000 N   0  0
   -2.5870   -3.7544    0.0000 C   0  0
   -2.5835   -5.2544    0.0000 C   0  0
   -3.8807   -6.0076    0.0000 C   0  0
   -5.1815   -5.2608    0.0000 C   0  0
   -5.1852   -3.7608    0.0000 C   0  0
   -3.8880   -3.0076    0.0000 C   0  0
   -6.4810   -6.0117    0.0000 N   0  0
   -7.7815   -5.2626    0.0000 C   0  0
   -9.0810   -6.0135    0.0000 C   0  0
  -10.3815   -5.2644    0.0000 C   0  0
  -14.2755   -7.5217    0.0000 O   0  0
  -14.2791   -6.0217    0.0000 C   0  0
  -12.9819   -5.2686    0.0000 C   0  0
  -11.6810   -6.0154    0.0000 N   0  0
  -11.6774   -7.5154    0.0000 C   0  0
  -12.9746   -8.2686    0.0000 C   0  0
   -6.2513   -1.3425    0.0000 N   0  0
  1  2  2  0
  2  3  1  0
  3  4  2  0
  4  5  1  0
  5  6  2  0
  6  7  1  0
  7  8  2  0
  8  9  1  0
  9 10  2  0
  1 10  1  0
  5 10  1  0
 11 12  2  0
 11 13  1  0
  3 11  1  0
 15 16  1  0
 16 17  2  0
 17 18  1  0
 18 19  2  0
 19 20  1  0
 15 20  2  0
 22 23  1  0
 23 24  1  0
 21 22  1  0
 25 26  1  0
 26 27  1  0
 27 28  1  0
 28 29  1  0
 29 30  1  0
 25 30  1  0
 24 28  1  0
 18 21  1  0
 14 15  1  0
  4 14  1  0
 13 31  1  0
M  END
> <From> 
www.bindingDB.org

> <BindingDB Reactant_set_id>
50426774

> <Ligand InChI>
InChI=1S/C23H28N6O2/c24-28-23(30)20-16-26-21-5-2-1-4-19(21)22(20)27-18-8-6-17(7-9-18)25-10-3-11-29-12-14-31-15-13-29/h1-2,4-9,16,25H,3,10-15,24H2,(H,26,27)(H,28,30)

> <Ligand InChI Key>
XZAFXRJWFALIFR-UHFFFAOYSA-N

> <BindingDB MonomerID>
50126793

> <BindingDB Ligand Name>
CHEMBL3628444

> <Target Name Assigned by Curator or DataSource>
DNA gyrase subunit B

> <Target Source Organism According to Curator or DataSource>


> <Ki (nM)>


> <IC50 (nM)>
>50000

> <Kd (nM)>


> <EC50 (nM)>


> <kon (M-1-s-1)>


> <koff (s-1)>


> <pH>


> <Temp C>


> <Curation/DataSource>
ChEMBL

> <Article DOI>
10.1016/j.ejmech.2015.06.032

> <PMID>
26318054

> <PubChem AID>


> <Patent Number>


> <Authors>
Medapi, B; Suryadevara, P; Renuka, J; Sridevi, JP; Yogeeswari, P; Sriram, D

> <Institution>
Birla Institute of Technology&amp;Science

> <Link to Ligand in BindingDB>
http://www.bindingdb.org/bind/chemsearch/marvin/MolStructure.jsp?monomerid=50126793

> <Link to Ligand-Target Pair in BindingDB>
http://www.bindingdb.org/jsp/dbsearch/PrimarySearch_ki.jsp?energyterm=kJ/mole&tag=pol&polymerid=50006452&target=DNA+gyrase+subunit+B&column=ki&startPg=0&Increment=50&submit=Search

> <Link to Ligand-Target Pair in BindingDB>
http://www.bindingdb.org/jsp/dbsearch/PrimarySearch_ki.jsp?energyterm=kJ/mole&tag=r21&monomerid=50126793&enzyme=DNA+gyrase+subunit+B&column=ki&startPg=0&Increment=50&submit=Search

> <Ligand HET ID in PDB>


> <PDB ID(s) for Ligand-Target Complex>


> <PubChem CID>
122193457

> <PubChem SID>
321902395

> <ChEBI ID of Ligand>


> <ChEMBL ID of Ligand>


> <DrugBank ID of Ligand>


> <IUPHAR_GRAC ID of Ligand>


> <KEGG ID of Ligand>


> <ZINC ID of Ligand>


> <Number of Protein Chains in Target (>1 implies a multichain complex)>
1

> <BindingDB Target Chain Sequence>
MAAQKNNAPKEYGADSITILEGLEAVRKRPGMYIGSTGERGLHHLIWEVVDNAVDEAMAGFATRVDVKIHADGSVEVRDDGRGIPVEMHATGMPTIDVVMTQLHAGGKFDGETYAVSGGLHGVGVSVVNALSTRLEATVLRDGYEWFQYYDRSVPGKLKQGGETKETGTTIRFWADPEIFETTDYNFETVARRLQEMAFLNKGLTIELTDERVTAEEVVDDVVKDTAEAPKTADEKAAEATGPSKVKHRVFHYPGGLVDYVKHINRTKTPIQQSIIDFDGKGPGHEVEIAMQWNAGYSESVHTFANTINTHEGGTHEEGFRAALTSVVNRYAKDKKLLKDKDPNLTGDDIREGLAAVISVKVAEPQFEGQTKTKLGNTEVKSFVQKICNEQLQHWFEANPAEAKTVVNKAVSSAQARIAARKARELVRRKSATDIGGLPGKLADCRSTDPSKSELYVVEGDSAGGSAKSGRDSMFQAILPLRGKIINVEKARIDRVLKNTEVQSIITALGTGIHDEFDISKLRYHKIVLMADADVDGQHISTLLLTLLFRFMKPLVENGHIFLAQPPLYKLKWQRSEPEFAYSDRERDGLLEAGRAAGKKINVDDGIQRYKGLGEMDAKELWETTMDPSVRVLRQVTLDDAAAADELFSILMGEDVEARRSFITRNAKDVRFLDV

> <PDB ID(s) of Target Chain>
4BAE

> <UniProt (SwissProt) Recommended Name of Target Chain>
DNA gyrase subunit B

> <UniProt (SwissProt) Entry Name of Target Chain>
GYRB_MYCSM

> <UniProt (SwissProt) Primary ID of Target Chain>
P0C559

> <UniProt (SwissProt) Secondary ID(s) of Target Chain>
P48355,Q59555

> <UniProt (SwissProt) Alternative ID(s) of Target Chain>


> <UniProt (TrEMBL) Submitted Name of Target Chain>


> <UniProt (TrEMBL) Entry Name of Target Chain>


> <UniProt (TrEMBL) Primary ID of Target Chain>


> <UniProt (TrEMBL) Secondary ID(s) of Target Chain>


> <UniProt (TrEMBL) Alternative ID(s) of Target Chain>


$$$$

  Mrv0541 11241407232D          

 29 33  0  0  0  0            999 V2000
    1.3361    1.4744    0.0000 F   0  0  0  0  0  0  0  0  0  0  0  0
   -0.0929   -1.0006    0.0000 O   0  0  0  0  0  0  0  0  0  0  0  0
   -1.5218    2.2994    0.0000 O   0  0  0  0  0  0  0  0  0  0  0  0
   -2.9508    2.2994    0.0000 O   0  0  0  0  0  0  0  0  0  0  0  0
   -3.6652    1.0619    0.0000 O   0  0  0  0  0  0  0  0  0  0  0  0
    1.3361   -0.1756    0.0000 N   0  0  0  0  0  0  0  0  0  0  0  0
    3.4668   -0.4532    0.0000 N   0  0  0  0  0  0  0  0  0  0  0  0
   -1.5218   -0.1756    0.0000 N   0  0  0  0  0  0  0  0  0  0  0  0
    2.2293   -1.1676    0.0000 C   0  0  2  0  0  0  0  0  0  0  0  0
    2.6418   -0.4532    0.0000 C   0  0  1  0  0  0  0  0  0  0  0  0
    1.4223   -0.9961    0.0000 C   0  0  0  0  0  0  0  0  0  0  0  0
    2.0897    0.1599    0.0000 C   0  0  0  0  0  0  0  0  0  0  0  0
    2.6418   -1.8821    0.0000 C   0  0  0  0  0  0  0  0  0  0  0  0
   -1.5218   -1.0006    0.0000 C   0  0  0  0  0  0  0  0  0  0  0  0
    3.4668   -1.8821    0.0000 C   0  0  0  0  0  0  0  0  0  0  0  0
   -1.1093   -1.7151    0.0000 C   0  0  0  0  0  0  0  0  0  0  0  0
   -1.9343   -1.7151    0.0000 C   0  0  0  0  0  0  0  0  0  0  0  0
    3.8793   -1.1676    0.0000 C   0  0  0  0  0  0  0  0  0  0  0  0
    0.6216    0.2369    0.0000 C   0  0  0  0  0  0  0  0  0  0  0  0
   -0.8073    0.2369    0.0000 C   0  0  0  0  0  0  0  0  0  0  0  0
   -0.0929   -0.1756    0.0000 C   0  0  0  0  0  0  0  0  0  0  0  0
   -0.8073    1.0619    0.0000 C   0  0  0  0  0  0  0  0  0  0  0  0
    0.6216    1.0619    0.0000 C   0  0  0  0  0  0  0  0  0  0  0  0
   -2.2363    0.2369    0.0000 C   0  0  0  0  0  0  0  0  0  0  0  0
   -0.0929    1.4744    0.0000 C   0  0  0  0  0  0  0  0  0  0  0  0
   -2.2363    1.0619    0.0000 C   0  0  0  0  0  0  0  0  0  0  0  0
   -1.5218    1.4744    0.0000 C   0  0  0  0  0  0  0  0  0  0  0  0
   -2.9508    1.4744    0.0000 C   0  0  0  0  0  0  0  0  0  0  0  0
   -0.8073   -1.4131    0.0000 C   0  0  0  0  0  0  0  0  0  0  0  0
 23  1  1  0  0  0  0
 21  2  1  0  0  0  0
 29  2  1  0  0  0  0
 27  3  2  0  0  0  0
 28  4  1  0  0  0  0
 28  5  2  0  0  0  0
 11  6  1  0  0  0  0
 12  6  1  0  0  0  0
 19  6  1  0  0  0  0
 10  7  1  0  0  0  0
 18  7  1  0  0  0  0
 14  8  1  0  0  0  0
 20  8  1  0  0  0  0
 24  8  1  0  0  0  0
  9 10  1  0  0  0  0
  9 11  1  1  0  0  0
  9 13  1  0  0  0  0
 10 12  1  1  0  0  0
 13 15  1  0  0  0  0
 14 16  1  0  0  0  0
 14 17  1  0  0  0  0
 15 18  1  0  0  0  0
 16 17  1  0  0  0  0
 19 21  1  0  0  0  0
 19 23  2  0  0  0  0
 20 21  2  0  0  0  0
 20 22  1  0  0  0  0
 22 25  2  0  0  0  0
 22 27  1  0  0  0  0
 23 25  1  0  0  0  0
 24 26  2  0  0  0  0
 26 27  1  0  0  0  0
 26 28  1  0  0  0  0
M  END
> <From> 
www.bindingDB.org

> <BindingDB Reactant_set_id>
50369847

> <Ligand InChI>
InChI=1S/C21H24FN3O4/c1-29-20-17-13(19(26)14(21(27)28)9-25(17)12-4-5-12)7-15(22)18(20)24-8-11-3-2-6-23-16(11)10-24/h7,9,11-12,16,23H,2-6,8,10H2,1H3,(H,27,28)/t11-,16+/m0/s1

> <Ligand InChI Key>
FABPRXSRWADJSP-MEDUHNTESA-N

> <BindingDB MonomerID>
50366824

> <BindingDB Ligand Name>
Avelox::MOXIFLOXACIN

> <Target Name Assigned by Curator or DataSource>
DNA gyrase subunit B

> <Target Source Organism According to Curator or DataSource>


> <Ki (nM)>


> <IC50 (nM)>
>50000

> <Kd (nM)>


> <EC50 (nM)>


> <kon (M-1-s-1)>


> <koff (s-1)>


> <pH>


> <Temp C>


> <Curation/DataSource>
ChEMBL

> <Article DOI>
10.1016/j.bmc.2014.06.041

> <PMID>
25129171

> <PubChem AID>


> <Patent Number>


> <Authors>
Renuka, J; Reddy, KI; Srihari, K; Jeankumar, VU; Shravan, M; Sridevi, JP; Yogeeswari, P; Babu, KS; Sriram, D

> <Institution>
Institute of Technology&amp; Science-Pilani

> <Link to Ligand in BindingDB>
http://www.bindingdb.org/bind/chemsearch/marvin/MolStructure.jsp?monomerid=50366824

> <Link to Ligand-Target Pair in BindingDB>
http://www.bindingdb.org/jsp/dbsearch/PrimarySearch_ki.jsp?energyterm=kJ/mole&tag=pol&polymerid=50006452&target=DNA+gyrase+subunit+B&column=ki&startPg=0&Increment=50&submit=Search

> <Link to Ligand-Target Pair in BindingDB>
http://www.bindingdb.org/jsp/dbsearch/PrimarySearch_ki.jsp?energyterm=kJ/mole&tag=r21&monomerid=50366824&enzyme=DNA+gyrase+subunit+B&column=ki&startPg=0&Increment=50&submit=Search

> <Ligand HET ID in PDB>
MFX

> <PDB ID(s) for Ligand-Target Complex>
2XKK,3FOF,4Z2C,4Z3O,5BS8,5BTA,5CDQ

> <PubChem CID>
152946

> <PubChem SID>
160845926

> <ChEBI ID of Ligand>
63611

> <ChEMBL ID of Ligand>


> <DrugBank ID of Ligand>
DB00218

> <IUPHAR_GRAC ID of Ligand>


> <KEGG ID of Ligand>


> <ZINC ID of Ligand>
ZINC03826253

> <Number of Protein Chains in Target (>1 implies a multichain complex)>
1

> <BindingDB Target Chain Sequence>
MAAQKNNAPKEYGADSITILEGLEAVRKRPGMYIGSTGERGLHHLIWEVVDNAVDEAMAGFATRVDVKIHADGSVEVRDDGRGIPVEMHATGMPTIDVVMTQLHAGGKFDGETYAVSGGLHGVGVSVVNALSTRLEATVLRDGYEWFQYYDRSVPGKLKQGGETKETGTTIRFWADPEIFETTDYNFETVARRLQEMAFLNKGLTIELTDERVTAEEVVDDVVKDTAEAPKTADEKAAEATGPSKVKHRVFHYPGGLVDYVKHINRTKTPIQQSIIDFDGKGPGHEVEIAMQWNAGYSESVHTFANTINTHEGGTHEEGFRAALTSVVNRYAKDKKLLKDKDPNLTGDDIREGLAAVISVKVAEPQFEGQTKTKLGNTEVKSFVQKICNEQLQHWFEANPAEAKTVVNKAVSSAQARIAARKARELVRRKSATDIGGLPGKLADCRSTDPSKSELYVVEGDSAGGSAKSGRDSMFQAILPLRGKIINVEKARIDRVLKNTEVQSIITALGTGIHDEFDISKLRYHKIVLMADADVDGQHISTLLLTLLFRFMKPLVENGHIFLAQPPLYKLKWQRSEPEFAYSDRERDGLLEAGRAAGKKINVDDGIQRYKGLGEMDAKELWETTMDPSVRVLRQVTLDDAAAADELFSILMGEDVEARRSFITRNAKDVRFLDV

> <PDB ID(s) of Target Chain>
4BAE

> <UniProt (SwissProt) Recommended Name of Target Chain>
DNA gyrase subunit B

> <UniProt (SwissProt) Entry Name of Target Chain>
GYRB_MYCSM

> <UniProt (SwissProt) Primary ID of Target Chain>
P0C559

> <UniProt (SwissProt) Secondary ID(s) of Target Chain>
P48355,Q59555

> <UniProt (SwissProt) Alternative ID(s) of Target Chain>


> <UniProt (TrEMBL) Submitted Name of Target Chain>


> <UniProt (TrEMBL) Entry Name of Target Chain>


> <UniProt (TrEMBL) Primary ID of Target Chain>


> <UniProt (TrEMBL) Secondary ID(s) of Target Chain>


> <UniProt (TrEMBL) Alternative ID(s) of Target Chain>


$$$$

  SciTegic04201612532D

 30 33  0  0  0  0            999 V2000
   -1.2964    1.4973    0.0000 N   0  0
   -2.6111    0.7486    0.0000 C   0  0
   -2.6111   -0.7486    0.0000 C   0  0
   -1.2964   -1.4973    0.0000 C   0  0
    0.0000   -0.7486    0.0000 C   0  0
    1.2964   -1.4973    0.0000 C   0  0
    2.5929   -0.7486    0.0000 C   0  0
    2.5929    0.7486    0.0000 C   0  0
    1.2964    1.4973    0.0000 C   0  0
    0.0000    0.7486    0.0000 C   0  0
   -3.9122   -1.4966    0.0000 C   0  0
   -4.9506   -0.8952    0.0000 O   0  0
   -1.2907   -2.9981    0.0000 N   0  0
   -2.5870   -3.7544    0.0000 C   0  0
   -2.5835   -5.2544    0.0000 C   0  0
   -3.8807   -6.0076    0.0000 C   0  0
   -5.1815   -5.2608    0.0000 C   0  0
   -5.1852   -3.7608    0.0000 C   0  0
   -3.8880   -3.0076    0.0000 C   0  0
   -6.4810   -6.0117    0.0000 O   0  0
   -7.7815   -5.2626    0.0000 C   0  0
   -9.0810   -6.0135    0.0000 C   0  0
  -10.3815   -5.2644    0.0000 C   0  0
  -14.2755   -7.5217    0.0000 O   0  0
  -14.2791   -6.0217    0.0000 C   0  0
  -12.9819   -5.2686    0.0000 C   0  0
  -11.6810   -6.0154    0.0000 N   0  0
  -11.6774   -7.5154    0.0000 C   0  0
  -12.9746   -8.2686    0.0000 C   0  0
   -3.9138   -2.4966    0.0000 O   0  0
  1  2  2  0
  2  3  1  0
  3  4  2  0
  4  5  1  0
  5  6  2  0
  6  7  1  0
  7  8  2  0
  8  9  1  0
  9 10  2  0
  1 10  1  0
  5 10  1  0
 11 12  2  0
  3 11  1  0
 14 15  1  0
 15 16  2  0
 16 17  1  0
 17 18  2  0
 18 19  1  0
 14 19  2  0
 21 22  1  0
 22 23  1  0
 20 21  1  0
 24 25  1  0
 25 26  1  0
 26 27  1  0
 27 28  1  0
 28 29  1  0
 24 29  1  0
 23 27  1  0
 17 20  1  0
 13 14  1  0
  4 13  1  0
 11 30  1  0
M  END
> <From> 
www.bindingDB.org

> <BindingDB Reactant_set_id>
50426762

> <Ligand InChI>
InChI=1S/C23H25N3O4/c27-23(28)20-16-24-21-5-2-1-4-19(21)22(20)25-17-6-8-18(9-7-17)30-13-3-10-26-11-14-29-15-12-26/h1-2,4-9,16H,3,10-15H2,(H,24,25)(H,27,28)

> <Ligand InChI Key>
CZCJYXVFKURHSB-UHFFFAOYSA-N

> <BindingDB MonomerID>
50126389

> <BindingDB Ligand Name>
CHEMBL3628455

> <Target Name Assigned by Curator or DataSource>
DNA gyrase subunit B

> <Target Source Organism According to Curator or DataSource>


> <Ki (nM)>


> <IC50 (nM)>
>50000

> <Kd (nM)>


> <EC50 (nM)>


> <kon (M-1-s-1)>


> <koff (s-1)>


> <pH>


> <Temp C>


> <Curation/DataSource>
ChEMBL

> <Article DOI>
10.1016/j.ejmech.2015.06.032

> <PMID>
26318054

> <PubChem AID>


> <Patent Number>


> <Authors>
Medapi, B; Suryadevara, P; Renuka, J; Sridevi, JP; Yogeeswari, P; Sriram, D

> <Institution>
Birla Institute of Technology&amp;Science

> <Link to Ligand in BindingDB>
http://www.bindingdb.org/bind/chemsearch/marvin/MolStructure.jsp?monomerid=50126389

> <Link to Ligand-Target Pair in BindingDB>
http://www.bindingdb.org/jsp/dbsearch/PrimarySearch_ki.jsp?energyterm=kJ/mole&tag=pol&polymerid=50006452&target=DNA+gyrase+subunit+B&column=ki&startPg=0&Increment=50&submit=Search

> <Link to Ligand-Target Pair in BindingDB>
http://www.bindingdb.org/jsp/dbsearch/PrimarySearch_ki.jsp?energyterm=kJ/mole&tag=r21&monomerid=50126389&enzyme=DNA+gyrase+subunit+B&column=ki&startPg=0&Increment=50&submit=Search

> <Ligand HET ID in PDB>


> <PDB ID(s) for Ligand-Target Complex>


> <PubChem CID>
122193469

> <PubChem SID>
104018465

> <ChEBI ID of Ligand>


> <ChEMBL ID of Ligand>
CHEMBL31390

> <DrugBank ID of Ligand>


> <IUPHAR_GRAC ID of Ligand>


> <KEGG ID of Ligand>


> <ZINC ID of Ligand>
ZINC29209724

> <Number of Protein Chains in Target (>1 implies a multichain complex)>
1

> <BindingDB Target Chain Sequence>
MAAQKNNAPKEYGADSITILEGLEAVRKRPGMYIGSTGERGLHHLIWEVVDNAVDEAMAGFATRVDVKIHADGSVEVRDDGRGIPVEMHATGMPTIDVVMTQLHAGGKFDGETYAVSGGLHGVGVSVVNALSTRLEATVLRDGYEWFQYYDRSVPGKLKQGGETKETGTTIRFWADPEIFETTDYNFETVARRLQEMAFLNKGLTIELTDERVTAEEVVDDVVKDTAEAPKTADEKAAEATGPSKVKHRVFHYPGGLVDYVKHINRTKTPIQQSIIDFDGKGPGHEVEIAMQWNAGYSESVHTFANTINTHEGGTHEEGFRAALTSVVNRYAKDKKLLKDKDPNLTGDDIREGLAAVISVKVAEPQFEGQTKTKLGNTEVKSFVQKICNEQLQHWFEANPAEAKTVVNKAVSSAQARIAARKARELVRRKSATDIGGLPGKLADCRSTDPSKSELYVVEGDSAGGSAKSGRDSMFQAILPLRGKIINVEKARIDRVLKNTEVQSIITALGTGIHDEFDISKLRYHKIVLMADADVDGQHISTLLLTLLFRFMKPLVENGHIFLAQPPLYKLKWQRSEPEFAYSDRERDGLLEAGRAAGKKINVDDGIQRYKGLGEMDAKELWETTMDPSVRVLRQVTLDDAAAADELFSILMGEDVEARRSFITRNAKDVRFLDV

> <PDB ID(s) of Target Chain>
4BAE

> <UniProt (SwissProt) Recommended Name of Target Chain>
DNA gyrase subunit B

> <UniProt (SwissProt) Entry Name of Target Chain>
GYRB_MYCSM

> <UniProt (SwissProt) Primary ID of Target Chain>
P0C559

> <UniProt (SwissProt) Secondary ID(s) of Target Chain>
P48355,Q59555

> <UniProt (SwissProt) Alternative ID(s) of Target Chain>


> <UniProt (TrEMBL) Submitted Name of Target Chain>


> <UniProt (TrEMBL) Entry Name of Target Chain>


> <UniProt (TrEMBL) Primary ID of Target Chain>


> <UniProt (TrEMBL) Secondary ID(s) of Target Chain>


> <UniProt (TrEMBL) Alternative ID(s) of Target Chain>


$$$$

  Mrv0541 11241415213D          

 15 17  0  0  0  0            999 V2000
   -2.0883   -0.8591    0.0000 C   0  0  0  0  0  0  0  0  0  0  0  0
   -2.0883   -0.0341    0.0000 N   0  0  0  0  0  0  0  0  0  0  0  0
   -1.3738    0.3784    0.0000 C   0  0  0  0  0  0  0  0  0  0  0  0
   -0.6593   -0.0341    0.0000 C   0  0  0  0  0  0  0  0  0  0  0  0
   -0.6593   -0.8591    0.0000 C   0  0  0  0  0  0  0  0  0  0  0  0
   -1.3738   -1.2716    0.0000 N   0  0  0  0  0  0  0  0  0  0  0  0
   -0.0463    0.5179    0.0000 C   0  0  0  0  0  0  0  0  0  0  0  0
   -0.3818    1.2716    0.0000 C   0  0  0  0  0  0  0  0  0  0  0  0
   -1.2023    1.1854    0.0000 S   0  0  0  0  0  0  0  0  0  0  0  0
    0.0551   -1.2716    0.0000 O   0  0  0  0  0  0  0  0  0  0  0  0
    0.7607    0.3464    0.0000 C   0  0  0  0  0  0  0  0  0  0  0  0
    1.3738    0.8984    0.0000 C   0  0  0  0  0  0  0  0  0  0  0  0
    2.0883    0.4859    0.0000 C   0  0  0  0  0  0  0  0  0  0  0  0
    1.9168   -0.3210    0.0000 C   0  0  0  0  0  0  0  0  0  0  0  0
    1.0963   -0.4073    0.0000 S   0  0  0  0  0  0  0  0  0  0  0  0
  1  2  2  0  0  0  0
  2  3  1  0  0  0  0
  3  4  2  0  0  0  0
  4  5  1  0  0  0  0
  5  6  1  0  0  0  0
  1  6  1  0  0  0  0
  7  8  2  0  0  0  0
  8  9  1  0  0  0  0
  3  9  1  0  0  0  0
  4  7  1  0  0  0  0
  5 10  2  0  0  0  0
 11 12  2  0  0  0  0
 12 13  1  0  0  0  0
 13 14  2  0  0  0  0
 14 15  1  0  0  0  0
 11 15  1  0  0  0  0
  7 11  1  0  0  0  0
M  END
> <From> 
www.bindingDB.org

> <BindingDB Reactant_set_id>
50462154

> <Ligand InChI>
InChI=1S/C10H6N2OS2/c13-9-8-6(7-2-1-3-14-7)4-15-10(8)12-5-11-9/h1-5H,(H,11,12,13)

> <Ligand InChI Key>
LFUBTAOTPHKKOS-UHFFFAOYSA-N

> <BindingDB MonomerID>
50414094

> <BindingDB Ligand Name>
CHEMBL559696

> <Target Name Assigned by Curator or DataSource>
DNA gyrase

> <Target Source Organism According to Curator or DataSource>
Staphylococcus aureus

> <Ki (nM)>


> <IC50 (nM)>
 50000

> <Kd (nM)>


> <EC50 (nM)>


> <kon (M-1-s-1)>


> <koff (s-1)>


> <pH>


> <Temp C>


> <Curation/DataSource>
ChEMBL

> <Article DOI>
10.1016/j.bmcl.2016.01.009

> <PMID>
26786695

> <PubChem AID>


> <Patent Number>


> <Authors>
Mesleh, MF; Cross, JB; Zhang, J; Kahmann, J; Andersen, OA; Barker, J; Cheng, RK; Felicetti, B; Wood, M; Hadfield, AT; Scheich, C; Moy, TI; Yang, Q; Shotwell, J; Nguyen, K; Lippa, B; Dolle, R; Ryan, MD

> <Institution>
Cubist Pharmaceuticals

> <Link to Ligand in BindingDB>
http://www.bindingdb.org/bind/chemsearch/marvin/MolStructure.jsp?monomerid=50414094

> <Link to Ligand-Target Pair in BindingDB>
http://www.bindingdb.org/jsp/dbsearch/PrimarySearch_ki.jsp?energyterm=kJ/mole&tag=pol&polymerid=2626&target=DNA+gyrase&column=ki&startPg=0&Increment=50&submit=Search

> <Link to Ligand-Target Pair in BindingDB>
http://www.bindingdb.org/jsp/dbsearch/PrimarySearch_ki.jsp?energyterm=kJ/mole&tag=r21&monomerid=50414094&enzyme=DNA+gyrase&column=ki&startPg=0&Increment=50&submit=Search

> <Ligand HET ID in PDB>


> <PDB ID(s) for Ligand-Target Complex>


> <PubChem CID>
665387

> <PubChem SID>
163363118

> <ChEBI ID of Ligand>


> <ChEMBL ID of Ligand>
CHEMBL559696

> <DrugBank ID of Ligand>


> <IUPHAR_GRAC ID of Ligand>


> <KEGG ID of Ligand>


> <ZINC ID of Ligand>
ZINC18125083

> <Number of Protein Chains in Target (>1 implies a multichain complex)>
1

> <BindingDB Target Chain Sequence>
MVTALSDVNNTDNYGAGQIQVLEGLEAVRKRPGMYIGSTSERGLHHLVWEIVDNSIDEALAGYANQIEVVIEKDNWIKVTDNGRGIPVDIQEKMGRPAVEVILTVLHAGGKFGGGGYKVSGGLHGVGSSVVNALSQDLEVYVHRNETIYHQAYKKGVPQFDLKEVGTTDKTGTVIRFKADGEIFTETTVYNYETLQQRIRELAFLNKGIQITLRDERDEENVREDSYHYEGGIKSYVELLNENKEPIHDEPIYIHQSKDDIEVEIAIQYNSGYATNLLTYANNIHTYEGGTHEDGFKRALTRVLNSYGLSSKIMKEEKDRLSGEDTREGMTAIISIKHGDPQFEGQTKTKLGNSEVRQVVDKLFSEHFERFLYENPQVARTVVEKGIMAARARVAAKKAREVTRRKSALDVASLPGKLADCSSKSPEECEIFLVEGDSAGGSTKSGRDSRTQAILPLRGKILNVEKARLDRILNNNEIRQMITAFGTGIGGDFDLAKARYHKIVIMTDADVDGAHIRTLLLTFFYRFMRPLIEAGYVYIAQPPLYKLTQGKQKYYVYNDRELDKLKSELNPTPKWSIARYKGLGEMNADQLWETTMNPEHRALLQVKLEDAIEADQTFEMLMGDVVENRRQFIEDNAVYANLDF

> <PDB ID(s) of Target Chain>


> <UniProt (SwissProt) Recommended Name of Target Chain>
DNA gyrase subunit B

> <UniProt (SwissProt) Entry Name of Target Chain>
GYRB_STAAU

> <UniProt (SwissProt) Primary ID of Target Chain>
P0A0K8

> <UniProt (SwissProt) Secondary ID(s) of Target Chain>
P20832

> <UniProt (SwissProt) Alternative ID(s) of Target Chain>


> <UniProt (TrEMBL) Submitted Name of Target Chain>


> <UniProt (TrEMBL) Entry Name of Target Chain>


> <UniProt (TrEMBL) Primary ID of Target Chain>


> <UniProt (TrEMBL) Secondary ID(s) of Target Chain>


> <UniProt (TrEMBL) Alternative ID(s) of Target Chain>


$$$$

  SciTegic12131614172D

 14 14  0  0  0  0            999 V2000
    0.7500   -1.0323    0.0000 C   0  0
    1.2135    0.3943    0.0000 S   0  0
    0.0000    1.2760    0.0000 C   0  0
   -1.2135    0.3943    0.0000 C   0  0
   -0.7500   -1.0323    0.0000 C   0  0
   -2.6394    0.8543    0.0000 C   0  0
   -3.5300    0.0501    0.0000 O   0  0
   -2.8910    2.0276    0.0000 N   0  0
    0.0031    2.7742    0.0000 N   0  0
    1.3039    3.5228    0.0000 C   0  0
    2.3421    2.9209    0.0000 O   0  0
    1.3070    5.0236    0.0000 C   0  0
    2.6079    5.7721    0.0000 C   0  0
    2.6104    6.9721    0.0000 C   0  0
  1  2  1  0
  2  3  1  0
  3  4  2  0
  4  5  1  0
  5  1  2  0
  4  6  1  0
  6  7  2  0
  6  8  1  0
  3  9  1  0
  9 10  1  0
 10 11  2  0
 10 12  1  0
 12 13  1  0
 13 14  1  0
M  END
> <From> 
www.bindingDB.org

> <BindingDB Reactant_set_id>
50462153

> <Ligand InChI>
InChI=1S/C9H12N2O2S/c1-2-3-7(12)11-9-6(8(10)13)4-5-14-9/h4-5H,2-3H2,1H3,(H2,10,13)(H,11,12)

> <Ligand InChI Key>
QFUOJZBSCYPNSJ-UHFFFAOYSA-N

> <BindingDB MonomerID>
50143189

> <BindingDB Ligand Name>
CHEMBL3759276

> <Target Name Assigned by Curator or DataSource>
DNA gyrase

> <Target Source Organism According to Curator or DataSource>
Staphylococcus aureus

> <Ki (nM)>


> <IC50 (nM)>
 50000

> <Kd (nM)>


> <EC50 (nM)>


> <kon (M-1-s-1)>


> <koff (s-1)>


> <pH>


> <Temp C>


> <Curation/DataSource>
ChEMBL

> <Article DOI>
10.1016/j.bmcl.2016.01.009

> <PMID>
26786695

> <PubChem AID>


> <Patent Number>


> <Authors>
Mesleh, MF; Cross, JB; Zhang, J; Kahmann, J; Andersen, OA; Barker, J; Cheng, RK; Felicetti, B; Wood, M; Hadfield, AT; Scheich, C; Moy, TI; Yang, Q; Shotwell, J; Nguyen, K; Lippa, B; Dolle, R; Ryan, MD

> <Institution>
Cubist Pharmaceuticals

> <Link to Ligand in BindingDB>
http://www.bindingdb.org/bind/chemsearch/marvin/MolStructure.jsp?monomerid=50143189

> <Link to Ligand-Target Pair in BindingDB>
http://www.bindingdb.org/jsp/dbsearch/PrimarySearch_ki.jsp?energyterm=kJ/mole&tag=pol&polymerid=2626&target=DNA+gyrase&column=ki&startPg=0&Increment=50&submit=Search

> <Link to Ligand-Target Pair in BindingDB>
http://www.bindingdb.org/jsp/dbsearch/PrimarySearch_ki.jsp?energyterm=kJ/mole&tag=r21&monomerid=50143189&enzyme=DNA+gyrase&column=ki&startPg=0&Increment=50&submit=Search

> <Ligand HET ID in PDB>
55D

> <PDB ID(s) for Ligand-Target Complex>
5CTW

> <PubChem CID>
2970903

> <PubChem SID>
336952908

> <ChEBI ID of Ligand>


> <ChEMBL ID of Ligand>


> <DrugBank ID of Ligand>


> <IUPHAR_GRAC ID of Ligand>


> <KEGG ID of Ligand>


> <ZINC ID of Ligand>


> <Number of Protein Chains in Target (>1 implies a multichain complex)>
1

> <BindingDB Target Chain Sequence>
MVTALSDVNNTDNYGAGQIQVLEGLEAVRKRPGMYIGSTSERGLHHLVWEIVDNSIDEALAGYANQIEVVIEKDNWIKVTDNGRGIPVDIQEKMGRPAVEVILTVLHAGGKFGGGGYKVSGGLHGVGSSVVNALSQDLEVYVHRNETIYHQAYKKGVPQFDLKEVGTTDKTGTVIRFKADGEIFTETTVYNYETLQQRIRELAFLNKGIQITLRDERDEENVREDSYHYEGGIKSYVELLNENKEPIHDEPIYIHQSKDDIEVEIAIQYNSGYATNLLTYANNIHTYEGGTHEDGFKRALTRVLNSYGLSSKIMKEEKDRLSGEDTREGMTAIISIKHGDPQFEGQTKTKLGNSEVRQVVDKLFSEHFERFLYENPQVARTVVEKGIMAARARVAAKKAREVTRRKSALDVASLPGKLADCSSKSPEECEIFLVEGDSAGGSTKSGRDSRTQAILPLRGKILNVEKARLDRILNNNEIRQMITAFGTGIGGDFDLAKARYHKIVIMTDADVDGAHIRTLLLTFFYRFMRPLIEAGYVYIAQPPLYKLTQGKQKYYVYNDRELDKLKSELNPTPKWSIARYKGLGEMNADQLWETTMNPEHRALLQVKLEDAIEADQTFEMLMGDVVENRRQFIEDNAVYANLDF

> <PDB ID(s) of Target Chain>


> <UniProt (SwissProt) Recommended Name of Target Chain>
DNA gyrase subunit B

> <UniProt (SwissProt) Entry Name of Target Chain>
GYRB_STAAU

> <UniProt (SwissProt) Primary ID of Target Chain>
P0A0K8

> <UniProt (SwissProt) Secondary ID(s) of Target Chain>
P20832

> <UniProt (SwissProt) Alternative ID(s) of Target Chain>


> <UniProt (TrEMBL) Submitted Name of Target Chain>


> <UniProt (TrEMBL) Entry Name of Target Chain>


> <UniProt (TrEMBL) Primary ID of Target Chain>


> <UniProt (TrEMBL) Secondary ID(s) of Target Chain>


> <UniProt (TrEMBL) Alternative ID(s) of Target Chain>


$$$$

  Mrv0541 11241420112D          

 14 15  0  0  0  0            999 V2000
    3.3173   -2.4422    0.0000 N   0  0  0  0  0  0  0  0  0  0  0  0
    2.6080   -1.2011    0.0000 N   0  0  0  0  0  0  0  0  0  0  0  0
    2.6080   -2.0304    0.0000 C   0  0  0  0  0  0  0  0  0  0  0  0
    4.0322   -2.0304    0.0000 C   0  0  0  0  0  0  0  0  0  0  0  0
    4.0322   -1.2011    0.0000 C   0  0  0  0  0  0  0  0  0  0  0  0
    3.3173   -0.7893    0.0000 C   0  0  0  0  0  0  0  0  0  0  0  0
    4.7414   -2.4422    0.0000 C   0  0  0  0  0  0  0  0  0  0  0  0
    3.3115    0.0343    0.0000 O   0  0  0  0  0  0  0  0  0  0  0  0
    1.8932   -2.4422    0.0000 N   0  0  0  0  0  0  0  0  0  0  0  0
    4.7414   -3.2658    0.0000 C   0  0  0  0  0  0  0  0  0  0  0  0
    5.4563   -2.0247    0.0000 C   0  0  0  0  0  0  0  0  0  0  0  0
    6.1655   -2.4251    0.0000 C   0  0  0  0  0  0  0  0  0  0  0  0
    5.4621   -3.6718    0.0000 C   0  0  0  0  0  0  0  0  0  0  0  0
    6.1769   -3.2600    0.0000 C   0  0  0  0  0  0  0  0  0  0  0  0
  2  3  1  0  0  0  0
  3  1  2  0  0  0  0
  4  1  1  0  0  0  0
  5  4  2  0  0  0  0
  6  5  1  0  0  0  0
  7  4  1  0  0  0  0
  8  6  2  0  0  0  0
  9  3  1  0  0  0  0
 10  7  2  0  0  0  0
 11  7  1  0  0  0  0
 12 11  2  0  0  0  0
 13 10  1  0  0  0  0
 14 12  1  0  0  0  0
  2  6  1  0  0  0  0
 14 13  2  0  0  0  0
M  END
> <From> 
www.bindingDB.org

> <BindingDB Reactant_set_id>
50462152

> <Ligand InChI>
InChI=1S/C10H9N3O/c11-10-12-8(6-9(14)13-10)7-4-2-1-3-5-7/h1-6H,(H3,11,12,13,14)

> <Ligand InChI Key>
KXYGHDWFGFZJPJ-UHFFFAOYSA-N

> <BindingDB MonomerID>
50449136

> <BindingDB Ligand Name>
CHEMBL288959

> <Target Name Assigned by Curator or DataSource>
DNA gyrase

> <Target Source Organism According to Curator or DataSource>
Staphylococcus aureus

> <Ki (nM)>


> <IC50 (nM)>
 50000

> <Kd (nM)>


> <EC50 (nM)>


> <kon (M-1-s-1)>


> <koff (s-1)>


> <pH>


> <Temp C>


> <Curation/DataSource>
ChEMBL

> <Article DOI>
10.1016/j.bmcl.2016.01.009

> <PMID>
26786695

> <PubChem AID>


> <Patent Number>


> <Authors>
Mesleh, MF; Cross, JB; Zhang, J; Kahmann, J; Andersen, OA; Barker, J; Cheng, RK; Felicetti, B; Wood, M; Hadfield, AT; Scheich, C; Moy, TI; Yang, Q; Shotwell, J; Nguyen, K; Lippa, B; Dolle, R; Ryan, MD

> <Institution>
Cubist Pharmaceuticals

> <Link to Ligand in BindingDB>
http://www.bindingdb.org/bind/chemsearch/marvin/MolStructure.jsp?monomerid=50449136

> <Link to Ligand-Target Pair in BindingDB>
http://www.bindingdb.org/jsp/dbsearch/PrimarySearch_ki.jsp?energyterm=kJ/mole&tag=pol&polymerid=2626&target=DNA+gyrase&column=ki&startPg=0&Increment=50&submit=Search

> <Link to Ligand-Target Pair in BindingDB>
http://www.bindingdb.org/jsp/dbsearch/PrimarySearch_ki.jsp?energyterm=kJ/mole&tag=r21&monomerid=50449136&enzyme=DNA+gyrase&column=ki&startPg=0&Increment=50&submit=Search

> <Ligand HET ID in PDB>


> <PDB ID(s) for Ligand-Target Complex>


> <PubChem CID>
95891

> <PubChem SID>
194947032

> <ChEBI ID of Ligand>


> <ChEMBL ID of Ligand>
CHEMBL288959

> <DrugBank ID of Ligand>


> <IUPHAR_GRAC ID of Ligand>


> <KEGG ID of Ligand>


> <ZINC ID of Ligand>


> <Number of Protein Chains in Target (>1 implies a multichain complex)>
1

> <BindingDB Target Chain Sequence>
MVTALSDVNNTDNYGAGQIQVLEGLEAVRKRPGMYIGSTSERGLHHLVWEIVDNSIDEALAGYANQIEVVIEKDNWIKVTDNGRGIPVDIQEKMGRPAVEVILTVLHAGGKFGGGGYKVSGGLHGVGSSVVNALSQDLEVYVHRNETIYHQAYKKGVPQFDLKEVGTTDKTGTVIRFKADGEIFTETTVYNYETLQQRIRELAFLNKGIQITLRDERDEENVREDSYHYEGGIKSYVELLNENKEPIHDEPIYIHQSKDDIEVEIAIQYNSGYATNLLTYANNIHTYEGGTHEDGFKRALTRVLNSYGLSSKIMKEEKDRLSGEDTREGMTAIISIKHGDPQFEGQTKTKLGNSEVRQVVDKLFSEHFERFLYENPQVARTVVEKGIMAARARVAAKKAREVTRRKSALDVASLPGKLADCSSKSPEECEIFLVEGDSAGGSTKSGRDSRTQAILPLRGKILNVEKARLDRILNNNEIRQMITAFGTGIGGDFDLAKARYHKIVIMTDADVDGAHIRTLLLTFFYRFMRPLIEAGYVYIAQPPLYKLTQGKQKYYVYNDRELDKLKSELNPTPKWSIARYKGLGEMNADQLWETTMNPEHRALLQVKLEDAIEADQTFEMLMGDVVENRRQFIEDNAVYANLDF

> <PDB ID(s) of Target Chain>


> <UniProt (SwissProt) Recommended Name of Target Chain>
DNA gyrase subunit B

> <UniProt (SwissProt) Entry Name of Target Chain>
GYRB_STAAU

> <UniProt (SwissProt) Primary ID of Target Chain>
P0A0K8

> <UniProt (SwissProt) Secondary ID(s) of Target Chain>
P20832

> <UniProt (SwissProt) Alternative ID(s) of Target Chain>


> <UniProt (TrEMBL) Submitted Name of Target Chain>


> <UniProt (TrEMBL) Entry Name of Target Chain>


> <UniProt (TrEMBL) Primary ID of Target Chain>


> <UniProt (TrEMBL) Secondary ID(s) of Target Chain>


> <UniProt (TrEMBL) Alternative ID(s) of Target Chain>


$$$$

  SciTegic12131614172D

 27 31  0  0  0  0            999 V2000
   -1.0028    1.5132    0.0000 N   0  0
   -2.3155    0.7475    0.0000 C   0  0
   -2.3155   -0.7475    0.0000 C   0  0
   -1.0028   -1.5132    0.0000 C   0  0
    0.2917    0.7475    0.0000 C   0  0
    0.2917   -0.7475    0.0000 C   0  0
    1.7138   -1.2033    0.0000 C   0  0
    2.5889    0.0182    0.0000 N   0  0
    1.7138    1.2033    0.0000 N   0  0
   -0.9982   -3.0140    0.0000 C   0  0
   -2.2894   -3.7767    0.0000 C   0  0
   -2.2745   -5.2767    0.0000 C   0  0
   -0.9680   -6.0137    0.0000 C   0  0
    0.3235   -5.2508    0.0000 C   0  0
    0.3086   -3.7509    0.0000 C   0  0
    2.1852   -2.6281    0.0000 C   0  0
   -3.3560    1.3452    0.0000 O   0  0
    3.5643   -3.1717    0.0000 C   0  0
    3.4539   -4.6676    0.0000 N   0  0
    1.9971   -5.0249    0.0000 C   0  0
    1.2071   -3.7498    0.0000 S   0  0
    1.4296   -6.4142    0.0000 C   0  0
    2.2547   -7.6609    0.0000 C   0  0
    1.5846   -9.0029    0.0000 C   0  0
    0.0873   -9.0936    0.0000 C   0  0
   -0.7398   -7.8422    0.0000 N   0  0
   -0.0697   -6.5002    0.0000 C   0  0
  6  4  1  0
  5  1  1  0
  1  2  1  0
  2  3  1  0
  3  4  2  0
  5  6  2  0
  6  7  1  0
  7  8  2  0
  8  9  1  0
  9  5  1  0
 10 11  2  0
 11 12  1  0
 12 13  2  0
 13 14  1  0
 14 15  2  0
 15 10  1  0
  4 10  1  0
  7 16  1  0
  2 17  2  0
 16 18  2  0
 18 19  1  0
 19 20  2  0
 20 21  1  0
 21 16  1  0
 22 23  2  0
 23 24  1  0
 24 25  2  0
 25 26  1  0
 26 27  2  0
 27 22  1  0
 20 22  1  0
M  END
> <From> 
www.bindingDB.org

> <BindingDB Reactant_set_id>
50462149

> <Ligand InChI>
InChI=1S/C20H13N5OS/c26-16-9-14(12-5-2-1-3-6-12)17-18(24-25-19(17)23-16)15-11-22-20(27-15)13-7-4-8-21-10-13/h1-11H,(H2,23,24,25,26)

> <Ligand InChI Key>
GPTXKTBHBIQZEL-UHFFFAOYSA-N

> <BindingDB MonomerID>
50143186

> <BindingDB Ligand Name>
CHEMBL3759862

> <Target Name Assigned by Curator or DataSource>
DNA gyrase

> <Target Source Organism According to Curator or DataSource>
Staphylococcus aureus

> <Ki (nM)>


> <IC50 (nM)>
 50000

> <Kd (nM)>


> <EC50 (nM)>


> <kon (M-1-s-1)>


> <koff (s-1)>


> <pH>


> <Temp C>


> <Curation/DataSource>
ChEMBL

> <Article DOI>
10.1016/j.bmcl.2016.01.009

> <PMID>
26786695

> <PubChem AID>


> <Patent Number>


> <Authors>
Mesleh, MF; Cross, JB; Zhang, J; Kahmann, J; Andersen, OA; Barker, J; Cheng, RK; Felicetti, B; Wood, M; Hadfield, AT; Scheich, C; Moy, TI; Yang, Q; Shotwell, J; Nguyen, K; Lippa, B; Dolle, R; Ryan, MD

> <Institution>
Cubist Pharmaceuticals

> <Link to Ligand in BindingDB>
http://www.bindingdb.org/bind/chemsearch/marvin/MolStructure.jsp?monomerid=50143186

> <Link to Ligand-Target Pair in BindingDB>
http://www.bindingdb.org/jsp/dbsearch/PrimarySearch_ki.jsp?energyterm=kJ/mole&tag=pol&polymerid=2626&target=DNA+gyrase&column=ki&startPg=0&Increment=50&submit=Search

> <Link to Ligand-Target Pair in BindingDB>
http://www.bindingdb.org/jsp/dbsearch/PrimarySearch_ki.jsp?energyterm=kJ/mole&tag=r21&monomerid=50143186&enzyme=DNA+gyrase&column=ki&startPg=0&Increment=50&submit=Search

> <Ligand HET ID in PDB>


> <PDB ID(s) for Ligand-Target Complex>


> <PubChem CID>
117072442

> <PubChem SID>
336952905

> <ChEBI ID of Ligand>


> <ChEMBL ID of Ligand>


> <DrugBank ID of Ligand>


> <IUPHAR_GRAC ID of Ligand>


> <KEGG ID of Ligand>


> <ZINC ID of Ligand>


> <Number of Protein Chains in Target (>1 implies a multichain complex)>
1

> <BindingDB Target Chain Sequence>
MVTALSDVNNTDNYGAGQIQVLEGLEAVRKRPGMYIGSTSERGLHHLVWEIVDNSIDEALAGYANQIEVVIEKDNWIKVTDNGRGIPVDIQEKMGRPAVEVILTVLHAGGKFGGGGYKVSGGLHGVGSSVVNALSQDLEVYVHRNETIYHQAYKKGVPQFDLKEVGTTDKTGTVIRFKADGEIFTETTVYNYETLQQRIRELAFLNKGIQITLRDERDEENVREDSYHYEGGIKSYVELLNENKEPIHDEPIYIHQSKDDIEVEIAIQYNSGYATNLLTYANNIHTYEGGTHEDGFKRALTRVLNSYGLSSKIMKEEKDRLSGEDTREGMTAIISIKHGDPQFEGQTKTKLGNSEVRQVVDKLFSEHFERFLYENPQVARTVVEKGIMAARARVAAKKAREVTRRKSALDVASLPGKLADCSSKSPEECEIFLVEGDSAGGSTKSGRDSRTQAILPLRGKILNVEKARLDRILNNNEIRQMITAFGTGIGGDFDLAKARYHKIVIMTDADVDGAHIRTLLLTFFYRFMRPLIEAGYVYIAQPPLYKLTQGKQKYYVYNDRELDKLKSELNPTPKWSIARYKGLGEMNADQLWETTMNPEHRALLQVKLEDAIEADQTFEMLMGDVVENRRQFIEDNAVYANLDF

> <PDB ID(s) of Target Chain>


> <UniProt (SwissProt) Recommended Name of Target Chain>
DNA gyrase subunit B

> <UniProt (SwissProt) Entry Name of Target Chain>
GYRB_STAAU

> <UniProt (SwissProt) Primary ID of Target Chain>
P0A0K8

> <UniProt (SwissProt) Secondary ID(s) of Target Chain>
P20832

> <UniProt (SwissProt) Alternative ID(s) of Target Chain>


> <UniProt (TrEMBL) Submitted Name of Target Chain>


> <UniProt (TrEMBL) Entry Name of Target Chain>


> <UniProt (TrEMBL) Primary ID of Target Chain>


> <UniProt (TrEMBL) Secondary ID(s) of Target Chain>


> <UniProt (TrEMBL) Alternative ID(s) of Target Chain>


$$$$

  Mrv0541 11241407232D          

 29 33  0  0  0  0            999 V2000
    1.3361    1.4744    0.0000 F   0  0  0  0  0  0  0  0  0  0  0  0
   -0.0929   -1.0006    0.0000 O   0  0  0  0  0  0  0  0  0  0  0  0
   -1.5218    2.2994    0.0000 O   0  0  0  0  0  0  0  0  0  0  0  0
   -2.9508    2.2994    0.0000 O   0  0  0  0  0  0  0  0  0  0  0  0
   -3.6652    1.0619    0.0000 O   0  0  0  0  0  0  0  0  0  0  0  0
    1.3361   -0.1756    0.0000 N   0  0  0  0  0  0  0  0  0  0  0  0
    3.4668   -0.4532    0.0000 N   0  0  0  0  0  0  0  0  0  0  0  0
   -1.5218   -0.1756    0.0000 N   0  0  0  0  0  0  0  0  0  0  0  0
    2.2293   -1.1676    0.0000 C   0  0  2  0  0  0  0  0  0  0  0  0
    2.6418   -0.4532    0.0000 C   0  0  1  0  0  0  0  0  0  0  0  0
    1.4223   -0.9961    0.0000 C   0  0  0  0  0  0  0  0  0  0  0  0
    2.0897    0.1599    0.0000 C   0  0  0  0  0  0  0  0  0  0  0  0
    2.6418   -1.8821    0.0000 C   0  0  0  0  0  0  0  0  0  0  0  0
   -1.5218   -1.0006    0.0000 C   0  0  0  0  0  0  0  0  0  0  0  0
    3.4668   -1.8821    0.0000 C   0  0  0  0  0  0  0  0  0  0  0  0
   -1.1093   -1.7151    0.0000 C   0  0  0  0  0  0  0  0  0  0  0  0
   -1.9343   -1.7151    0.0000 C   0  0  0  0  0  0  0  0  0  0  0  0
    3.8793   -1.1676    0.0000 C   0  0  0  0  0  0  0  0  0  0  0  0
    0.6216    0.2369    0.0000 C   0  0  0  0  0  0  0  0  0  0  0  0
   -0.8073    0.2369    0.0000 C   0  0  0  0  0  0  0  0  0  0  0  0
   -0.0929   -0.1756    0.0000 C   0  0  0  0  0  0  0  0  0  0  0  0
   -0.8073    1.0619    0.0000 C   0  0  0  0  0  0  0  0  0  0  0  0
    0.6216    1.0619    0.0000 C   0  0  0  0  0  0  0  0  0  0  0  0
   -2.2363    0.2369    0.0000 C   0  0  0  0  0  0  0  0  0  0  0  0
   -0.0929    1.4744    0.0000 C   0  0  0  0  0  0  0  0  0  0  0  0
   -2.2363    1.0619    0.0000 C   0  0  0  0  0  0  0  0  0  0  0  0
   -1.5218    1.4744    0.0000 C   0  0  0  0  0  0  0  0  0  0  0  0
   -2.9508    1.4744    0.0000 C   0  0  0  0  0  0  0  0  0  0  0  0
   -0.8073   -1.4131    0.0000 C   0  0  0  0  0  0  0  0  0  0  0  0
 23  1  1  0  0  0  0
 21  2  1  0  0  0  0
 29  2  1  0  0  0  0
 27  3  2  0  0  0  0
 28  4  1  0  0  0  0
 28  5  2  0  0  0  0
 11  6  1  0  0  0  0
 12  6  1  0  0  0  0
 19  6  1  0  0  0  0
 10  7  1  0  0  0  0
 18  7  1  0  0  0  0
 14  8  1  0  0  0  0
 20  8  1  0  0  0  0
 24  8  1  0  0  0  0
  9 10  1  0  0  0  0
  9 11  1  1  0  0  0
  9 13  1  0  0  0  0
 10 12  1  1  0  0  0
 13 15  1  0  0  0  0
 14 16  1  0  0  0  0
 14 17  1  0  0  0  0
 15 18  1  0  0  0  0
 16 17  1  0  0  0  0
 19 21  1  0  0  0  0
 19 23  2  0  0  0  0
 20 21  2  0  0  0  0
 20 22  1  0  0  0  0
 22 25  2  0  0  0  0
 22 27  1  0  0  0  0
 23 25  1  0  0  0  0
 24 26  2  0  0  0  0
 26 27  1  0  0  0  0
 26 28  1  0  0  0  0
M  END
> <From> 
www.bindingDB.org

> <BindingDB Reactant_set_id>
50426753

> <Ligand InChI>
InChI=1S/C21H24FN3O4/c1-29-20-17-13(19(26)14(21(27)28)9-25(17)12-4-5-12)7-15(22)18(20)24-8-11-3-2-6-23-16(11)10-24/h7,9,11-12,16,23H,2-6,8,10H2,1H3,(H,27,28)/t11-,16+/m0/s1

> <Ligand InChI Key>
FABPRXSRWADJSP-MEDUHNTESA-N

> <BindingDB MonomerID>
50366824

> <BindingDB Ligand Name>
Avelox::MOXIFLOXACIN

> <Target Name Assigned by Curator or DataSource>
DNA gyrase subunit B

> <Target Source Organism According to Curator or DataSource>


> <Ki (nM)>


> <IC50 (nM)>
>50000

> <Kd (nM)>


> <EC50 (nM)>


> <kon (M-1-s-1)>


> <koff (s-1)>


> <pH>


> <Temp C>


> <Curation/DataSource>
ChEMBL

> <Article DOI>
10.1016/j.ejmech.2015.06.032

> <PMID>
26318054

> <PubChem AID>


> <Patent Number>


> <Authors>
Medapi, B; Suryadevara, P; Renuka, J; Sridevi, JP; Yogeeswari, P; Sriram, D

> <Institution>
Birla Institute of Technology&amp;Science

> <Link to Ligand in BindingDB>
http://www.bindingdb.org/bind/chemsearch/marvin/MolStructure.jsp?monomerid=50366824

> <Link to Ligand-Target Pair in BindingDB>
http://www.bindingdb.org/jsp/dbsearch/PrimarySearch_ki.jsp?energyterm=kJ/mole&tag=pol&polymerid=50006452&target=DNA+gyrase+subunit+B&column=ki&startPg=0&Increment=50&submit=Search

> <Link to Ligand-Target Pair in BindingDB>
http://www.bindingdb.org/jsp/dbsearch/PrimarySearch_ki.jsp?energyterm=kJ/mole&tag=r21&monomerid=50366824&enzyme=DNA+gyrase+subunit+B&column=ki&startPg=0&Increment=50&submit=Search

> <Ligand HET ID in PDB>
MFX

> <PDB ID(s) for Ligand-Target Complex>
2XKK,3FOF,4Z2C,4Z3O,5BS8,5BTA,5CDQ

> <PubChem CID>
152946

> <PubChem SID>
160845926

> <ChEBI ID of Ligand>
63611

> <ChEMBL ID of Ligand>


> <DrugBank ID of Ligand>
DB00218

> <IUPHAR_GRAC ID of Ligand>


> <KEGG ID of Ligand>


> <ZINC ID of Ligand>
ZINC03826253

> <Number of Protein Chains in Target (>1 implies a multichain complex)>
1

> <BindingDB Target Chain Sequence>
MAAQKNNAPKEYGADSITILEGLEAVRKRPGMYIGSTGERGLHHLIWEVVDNAVDEAMAGFATRVDVKIHADGSVEVRDDGRGIPVEMHATGMPTIDVVMTQLHAGGKFDGETYAVSGGLHGVGVSVVNALSTRLEATVLRDGYEWFQYYDRSVPGKLKQGGETKETGTTIRFWADPEIFETTDYNFETVARRLQEMAFLNKGLTIELTDERVTAEEVVDDVVKDTAEAPKTADEKAAEATGPSKVKHRVFHYPGGLVDYVKHINRTKTPIQQSIIDFDGKGPGHEVEIAMQWNAGYSESVHTFANTINTHEGGTHEEGFRAALTSVVNRYAKDKKLLKDKDPNLTGDDIREGLAAVISVKVAEPQFEGQTKTKLGNTEVKSFVQKICNEQLQHWFEANPAEAKTVVNKAVSSAQARIAARKARELVRRKSATDIGGLPGKLADCRSTDPSKSELYVVEGDSAGGSAKSGRDSMFQAILPLRGKIINVEKARIDRVLKNTEVQSIITALGTGIHDEFDISKLRYHKIVLMADADVDGQHISTLLLTLLFRFMKPLVENGHIFLAQPPLYKLKWQRSEPEFAYSDRERDGLLEAGRAAGKKINVDDGIQRYKGLGEMDAKELWETTMDPSVRVLRQVTLDDAAAADELFSILMGEDVEARRSFITRNAKDVRFLDV

> <PDB ID(s) of Target Chain>
4BAE

> <UniProt (SwissProt) Recommended Name of Target Chain>
DNA gyrase subunit B

> <UniProt (SwissProt) Entry Name of Target Chain>
GYRB_MYCSM

> <UniProt (SwissProt) Primary ID of Target Chain>
P0C559

> <UniProt (SwissProt) Secondary ID(s) of Target Chain>
P48355,Q59555

> <UniProt (SwissProt) Alternative ID(s) of Target Chain>


> <UniProt (TrEMBL) Submitted Name of Target Chain>


> <UniProt (TrEMBL) Entry Name of Target Chain>


> <UniProt (TrEMBL) Primary ID of Target Chain>


> <UniProt (TrEMBL) Secondary ID(s) of Target Chain>


> <UniProt (TrEMBL) Alternative ID(s) of Target Chain>


$$$$

  SciTegic04201612532D

 34 37  0  0  0  0            999 V2000
   -1.2964    1.4973    0.0000 N   0  0
   -2.6111    0.7486    0.0000 C   0  0
   -2.6111   -0.7486    0.0000 C   0  0
   -1.2964   -1.4973    0.0000 C   0  0
    0.0000   -0.7486    0.0000 C   0  0
    1.2964   -1.4973    0.0000 C   0  0
    2.5929   -0.7486    0.0000 C   0  0
    2.5929    0.7486    0.0000 C   0  0
    1.2964    1.4973    0.0000 C   0  0
    0.0000    0.7486    0.0000 C   0  0
   -3.9122   -1.4966    0.0000 C   0  0
   -3.9138   -2.4966    0.0000 O   0  0
   -5.2109   -0.7445    0.0000 O   0  0
   -1.2907   -2.9981    0.0000 N   0  0
   -2.5870   -3.7544    0.0000 C   0  0
   -2.5835   -5.2544    0.0000 C   0  0
   -3.8807   -6.0076    0.0000 C   0  0
   -5.1815   -5.2608    0.0000 C   0  0
   -5.1852   -3.7608    0.0000 C   0  0
   -3.8880   -3.0076    0.0000 C   0  0
   -6.4810   -6.0117    0.0000 O   0  0
   -7.7815   -5.2626    0.0000 C   0  0
   -9.0810   -6.0135    0.0000 C   0  0
  -10.3815   -5.2644    0.0000 C   0  0
  -14.2755   -7.5217    0.0000 N   0  0
  -14.2791   -6.0217    0.0000 C   0  0
  -12.9819   -5.2686    0.0000 C   0  0
  -11.6810   -6.0154    0.0000 N   0  0
  -11.6774   -7.5154    0.0000 C   0  0
  -12.9746   -8.2686    0.0000 C   0  0
   -6.5121   -1.4924    0.0000 C   0  0
   -7.5506   -0.8910    0.0000 C   0  0
  -15.5719   -8.2779    0.0000 C   0  0
  -15.5672   -9.4779    0.0000 C   0  0
  1  2  2  0
  2  3  1  0
  3  4  2  0
  4  5  1  0
  5  6  2  0
  6  7  1  0
  7  8  2  0
  8  9  1  0
  9 10  2  0
  1 10  1  0
  5 10  1  0
 11 12  2  0
 11 13  1  0
  3 11  1  0
 15 16  1  0
 16 17  2  0
 17 18  1  0
 18 19  2  0
 19 20  1  0
 15 20  2  0
 22 23  1  0
 23 24  1  0
 21 22  1  0
 25 26  1  0
 26 27  1  0
 27 28  1  0
 28 29  1  0
 29 30  1  0
 25 30  1  0
 24 28  1  0
 18 21  1  0
 14 15  1  0
  4 14  1  0
 31 32  1  0
 13 31  1  0
 25 33  1  0
 33 34  1  0
M  END
> <From> 
www.bindingDB.org

> <BindingDB Reactant_set_id>
50426786

> <Ligand InChI>
InChI=1S/C27H34N4O3/c1-3-30-15-17-31(18-16-30)14-7-19-34-22-12-10-21(11-13-22)29-26-23-8-5-6-9-25(23)28-20-24(26)27(32)33-4-2/h5-6,8-13,20H,3-4,7,14-19H2,1-2H3,(H,28,29)

> <Ligand InChI Key>
WDGPCUXHUGLJOQ-UHFFFAOYSA-N

> <BindingDB MonomerID>
50126833

> <BindingDB Ligand Name>
CHEMBL3628355

> <Target Name Assigned by Curator or DataSource>
DNA gyrase subunit B

> <Target Source Organism According to Curator or DataSource>


> <Ki (nM)>


> <IC50 (nM)>
>50000

> <Kd (nM)>


> <EC50 (nM)>


> <kon (M-1-s-1)>


> <koff (s-1)>


> <pH>


> <Temp C>


> <Curation/DataSource>
ChEMBL

> <Article DOI>
10.1016/j.ejmech.2015.06.032

> <PMID>
26318054

> <PubChem AID>


> <Patent Number>


> <Authors>
Medapi, B; Suryadevara, P; Renuka, J; Sridevi, JP; Yogeeswari, P; Sriram, D

> <Institution>
Birla Institute of Technology&amp;Science

> <Link to Ligand in BindingDB>
http://www.bindingdb.org/bind/chemsearch/marvin/MolStructure.jsp?monomerid=50126833

> <Link to Ligand-Target Pair in BindingDB>
http://www.bindingdb.org/jsp/dbsearch/PrimarySearch_ki.jsp?energyterm=kJ/mole&tag=pol&polymerid=50006452&target=DNA+gyrase+subunit+B&column=ki&startPg=0&Increment=50&submit=Search

> <Link to Ligand-Target Pair in BindingDB>
http://www.bindingdb.org/jsp/dbsearch/PrimarySearch_ki.jsp?energyterm=kJ/mole&tag=r21&monomerid=50126833&enzyme=DNA+gyrase+subunit+B&column=ki&startPg=0&Increment=50&submit=Search

> <Ligand HET ID in PDB>


> <PDB ID(s) for Ligand-Target Complex>


> <PubChem CID>
122193396

> <PubChem SID>
104018901

> <ChEBI ID of Ligand>


> <ChEMBL ID of Ligand>
CHEMBL38222

> <DrugBank ID of Ligand>


> <IUPHAR_GRAC ID of Ligand>


> <KEGG ID of Ligand>


> <ZINC ID of Ligand>
ZINC13494225

> <Number of Protein Chains in Target (>1 implies a multichain complex)>
1

> <BindingDB Target Chain Sequence>
MAAQKNNAPKEYGADSITILEGLEAVRKRPGMYIGSTGERGLHHLIWEVVDNAVDEAMAGFATRVDVKIHADGSVEVRDDGRGIPVEMHATGMPTIDVVMTQLHAGGKFDGETYAVSGGLHGVGVSVVNALSTRLEATVLRDGYEWFQYYDRSVPGKLKQGGETKETGTTIRFWADPEIFETTDYNFETVARRLQEMAFLNKGLTIELTDERVTAEEVVDDVVKDTAEAPKTADEKAAEATGPSKVKHRVFHYPGGLVDYVKHINRTKTPIQQSIIDFDGKGPGHEVEIAMQWNAGYSESVHTFANTINTHEGGTHEEGFRAALTSVVNRYAKDKKLLKDKDPNLTGDDIREGLAAVISVKVAEPQFEGQTKTKLGNTEVKSFVQKICNEQLQHWFEANPAEAKTVVNKAVSSAQARIAARKARELVRRKSATDIGGLPGKLADCRSTDPSKSELYVVEGDSAGGSAKSGRDSMFQAILPLRGKIINVEKARIDRVLKNTEVQSIITALGTGIHDEFDISKLRYHKIVLMADADVDGQHISTLLLTLLFRFMKPLVENGHIFLAQPPLYKLKWQRSEPEFAYSDRERDGLLEAGRAAGKKINVDDGIQRYKGLGEMDAKELWETTMDPSVRVLRQVTLDDAAAADELFSILMGEDVEARRSFITRNAKDVRFLDV

> <PDB ID(s) of Target Chain>
4BAE

> <UniProt (SwissProt) Recommended Name of Target Chain>
DNA gyrase subunit B

> <UniProt (SwissProt) Entry Name of Target Chain>
GYRB_MYCSM

> <UniProt (SwissProt) Primary ID of Target Chain>
P0C559

> <UniProt (SwissProt) Secondary ID(s) of Target Chain>
P48355,Q59555

> <UniProt (SwissProt) Alternative ID(s) of Target Chain>


> <UniProt (TrEMBL) Submitted Name of Target Chain>


> <UniProt (TrEMBL) Entry Name of Target Chain>


> <UniProt (TrEMBL) Primary ID of Target Chain>


> <UniProt (TrEMBL) Secondary ID(s) of Target Chain>


> <UniProt (TrEMBL) Alternative ID(s) of Target Chain>


$$$$

  SciTegic12131614182D

 21 24  0  0  0  0            999 V2000
   -1.0028    1.5132    0.0000 N   0  0
   -2.3155    0.7475    0.0000 C   0  0
   -2.3155   -0.7475    0.0000 C   0  0
   -1.0028   -1.5132    0.0000 C   0  0
    0.2917    0.7475    0.0000 C   0  0
    0.2917   -0.7475    0.0000 C   0  0
    1.7138   -1.2033    0.0000 C   0  0
    2.5889    0.0182    0.0000 N   0  0
    1.7138    1.2033    0.0000 N   0  0
    2.1852   -2.6281    0.0000 C   0  0
   -3.3560    1.3452    0.0000 O   0  0
    3.5643   -3.1717    0.0000 C   0  0
    3.4539   -4.6676    0.0000 N   0  0
    1.9971   -5.0249    0.0000 C   0  0
    1.2071   -3.7498    0.0000 S   0  0
    1.4296   -6.4142    0.0000 C   0  0
    2.2547   -7.6609    0.0000 C   0  0
    1.5846   -9.0029    0.0000 C   0  0
    0.0873   -9.0936    0.0000 C   0  0
   -0.7398   -7.8422    0.0000 N   0  0
   -0.0697   -6.5002    0.0000 C   0  0
  6  4  1  0
  5  1  1  0
  1  2  1  0
  2  3  1  0
  3  4  2  0
  5  6  2  0
  6  7  1  0
  7  8  2  0
  8  9  1  0
  9  5  1  0
  7 10  1  0
  2 11  2  0
 10 12  2  0
 12 13  1  0
 13 14  2  0
 14 15  1  0
 15 10  1  0
 16 17  2  0
 17 18  1  0
 18 19  2  0
 19 20  1  0
 20 21  2  0
 21 16  1  0
 14 16  1  0
M  END
> <From> 
www.bindingDB.org

> <BindingDB Reactant_set_id>
50462147

> <Ligand InChI>
InChI=1S/C14H9N5OS/c20-11-4-3-9-12(18-19-13(9)17-11)10-7-16-14(21-10)8-2-1-5-15-6-8/h1-7H,(H2,17,18,19,20)

> <Ligand InChI Key>
JCIZDZAGSUATFA-UHFFFAOYSA-N

> <BindingDB MonomerID>
50143184

> <BindingDB Ligand Name>
CHEMBL3759063

> <Target Name Assigned by Curator or DataSource>
DNA gyrase

> <Target Source Organism According to Curator or DataSource>
Staphylococcus aureus

> <Ki (nM)>


> <IC50 (nM)>
 50000

> <Kd (nM)>


> <EC50 (nM)>


> <kon (M-1-s-1)>


> <koff (s-1)>


> <pH>


> <Temp C>


> <Curation/DataSource>
ChEMBL

> <Article DOI>
10.1016/j.bmcl.2016.01.009

> <PMID>
26786695

> <PubChem AID>


> <Patent Number>


> <Authors>
Mesleh, MF; Cross, JB; Zhang, J; Kahmann, J; Andersen, OA; Barker, J; Cheng, RK; Felicetti, B; Wood, M; Hadfield, AT; Scheich, C; Moy, TI; Yang, Q; Shotwell, J; Nguyen, K; Lippa, B; Dolle, R; Ryan, MD

> <Institution>
Cubist Pharmaceuticals

> <Link to Ligand in BindingDB>
http://www.bindingdb.org/bind/chemsearch/marvin/MolStructure.jsp?monomerid=50143184

> <Link to Ligand-Target Pair in BindingDB>
http://www.bindingdb.org/jsp/dbsearch/PrimarySearch_ki.jsp?energyterm=kJ/mole&tag=pol&polymerid=2626&target=DNA+gyrase&column=ki&startPg=0&Increment=50&submit=Search

> <Link to Ligand-Target Pair in BindingDB>
http://www.bindingdb.org/jsp/dbsearch/PrimarySearch_ki.jsp?energyterm=kJ/mole&tag=r21&monomerid=50143184&enzyme=DNA+gyrase&column=ki&startPg=0&Increment=50&submit=Search

> <Ligand HET ID in PDB>


> <PDB ID(s) for Ligand-Target Complex>


> <PubChem CID>
117072443

> <PubChem SID>
336952903

> <ChEBI ID of Ligand>


> <ChEMBL ID of Ligand>


> <DrugBank ID of Ligand>


> <IUPHAR_GRAC ID of Ligand>


> <KEGG ID of Ligand>


> <ZINC ID of Ligand>


> <Number of Protein Chains in Target (>1 implies a multichain complex)>
1

> <BindingDB Target Chain Sequence>
MVTALSDVNNTDNYGAGQIQVLEGLEAVRKRPGMYIGSTSERGLHHLVWEIVDNSIDEALAGYANQIEVVIEKDNWIKVTDNGRGIPVDIQEKMGRPAVEVILTVLHAGGKFGGGGYKVSGGLHGVGSSVVNALSQDLEVYVHRNETIYHQAYKKGVPQFDLKEVGTTDKTGTVIRFKADGEIFTETTVYNYETLQQRIRELAFLNKGIQITLRDERDEENVREDSYHYEGGIKSYVELLNENKEPIHDEPIYIHQSKDDIEVEIAIQYNSGYATNLLTYANNIHTYEGGTHEDGFKRALTRVLNSYGLSSKIMKEEKDRLSGEDTREGMTAIISIKHGDPQFEGQTKTKLGNSEVRQVVDKLFSEHFERFLYENPQVARTVVEKGIMAARARVAAKKAREVTRRKSALDVASLPGKLADCSSKSPEECEIFLVEGDSAGGSTKSGRDSRTQAILPLRGKILNVEKARLDRILNNNEIRQMITAFGTGIGGDFDLAKARYHKIVIMTDADVDGAHIRTLLLTFFYRFMRPLIEAGYVYIAQPPLYKLTQGKQKYYVYNDRELDKLKSELNPTPKWSIARYKGLGEMNADQLWETTMNPEHRALLQVKLEDAIEADQTFEMLMGDVVENRRQFIEDNAVYANLDF

> <PDB ID(s) of Target Chain>


> <UniProt (SwissProt) Recommended Name of Target Chain>
DNA gyrase subunit B

> <UniProt (SwissProt) Entry Name of Target Chain>
GYRB_STAAU

> <UniProt (SwissProt) Primary ID of Target Chain>
P0A0K8

> <UniProt (SwissProt) Secondary ID(s) of Target Chain>
P20832

> <UniProt (SwissProt) Alternative ID(s) of Target Chain>


> <UniProt (TrEMBL) Submitted Name of Target Chain>


> <UniProt (TrEMBL) Entry Name of Target Chain>


> <UniProt (TrEMBL) Primary ID of Target Chain>


> <UniProt (TrEMBL) Secondary ID(s) of Target Chain>


> <UniProt (TrEMBL) Alternative ID(s) of Target Chain>


$$$$

  SciTegic12131614182D

 22 25  0  0  0  0            999 V2000
   -1.0028    1.5132    0.0000 N   0  0
   -2.3155    0.7475    0.0000 C   0  0
   -2.3155   -0.7475    0.0000 C   0  0
   -1.0028   -1.5132    0.0000 C   0  0
    0.2917    0.7475    0.0000 C   0  0
    0.2917   -0.7475    0.0000 C   0  0
    1.7138   -1.2033    0.0000 C   0  0
    2.5889    0.0182    0.0000 N   0  0
    1.7138    1.2033    0.0000 N   0  0
   -0.9991   -2.7132    0.0000 C   0  0
    2.1852   -2.6281    0.0000 C   0  0
   -3.3560    1.3452    0.0000 O   0  0
    3.5643   -3.1717    0.0000 C   0  0
    3.4539   -4.6676    0.0000 N   0  0
    1.9971   -5.0249    0.0000 C   0  0
    1.2071   -3.7498    0.0000 S   0  0
    1.4296   -6.4142    0.0000 C   0  0
    2.2547   -7.6609    0.0000 C   0  0
    1.5846   -9.0029    0.0000 C   0  0
    0.0873   -9.0936    0.0000 C   0  0
   -0.7398   -7.8422    0.0000 N   0  0
   -0.0697   -6.5002    0.0000 C   0  0
  6  4  1  0
  5  1  1  0
  1  2  1  0
  2  3  1  0
  3  4  2  0
  5  6  2  0
  6  7  1  0
  7  8  2  0
  8  9  1  0
  9  5  1  0
  4 10  1  0
  7 11  1  0
  2 12  2  0
 11 13  2  0
 13 14  1  0
 14 15  2  0
 15 16  1  0
 16 11  1  0
 17 18  2  0
 18 19  1  0
 19 20  2  0
 20 21  1  0
 21 22  2  0
 22 17  1  0
 15 17  1  0
M  END
> <From> 
www.bindingDB.org

> <BindingDB Reactant_set_id>
50462148

> <Ligand InChI>
InChI=1S/C15H11N5OS/c1-8-5-11(21)18-14-12(8)13(19-20-14)10-7-17-15(22-10)9-3-2-4-16-6-9/h2-7H,1H3,(H2,18,19,20,21)

> <Ligand InChI Key>
WLVDKGGIDBZCCK-UHFFFAOYSA-N

> <BindingDB MonomerID>
50143185

> <BindingDB Ligand Name>
CHEMBL3759272

> <Target Name Assigned by Curator or DataSource>
DNA gyrase

> <Target Source Organism According to Curator or DataSource>
Staphylococcus aureus

> <Ki (nM)>


> <IC50 (nM)>
 50000

> <Kd (nM)>


> <EC50 (nM)>


> <kon (M-1-s-1)>


> <koff (s-1)>


> <pH>


> <Temp C>


> <Curation/DataSource>
ChEMBL

> <Article DOI>
10.1016/j.bmcl.2016.01.009

> <PMID>
26786695

> <PubChem AID>


> <Patent Number>


> <Authors>
Mesleh, MF; Cross, JB; Zhang, J; Kahmann, J; Andersen, OA; Barker, J; Cheng, RK; Felicetti, B; Wood, M; Hadfield, AT; Scheich, C; Moy, TI; Yang, Q; Shotwell, J; Nguyen, K; Lippa, B; Dolle, R; Ryan, MD

> <Institution>
Cubist Pharmaceuticals

> <Link to Ligand in BindingDB>
http://www.bindingdb.org/bind/chemsearch/marvin/MolStructure.jsp?monomerid=50143185

> <Link to Ligand-Target Pair in BindingDB>
http://www.bindingdb.org/jsp/dbsearch/PrimarySearch_ki.jsp?energyterm=kJ/mole&tag=pol&polymerid=2626&target=DNA+gyrase&column=ki&startPg=0&Increment=50&submit=Search

> <Link to Ligand-Target Pair in BindingDB>
http://www.bindingdb.org/jsp/dbsearch/PrimarySearch_ki.jsp?energyterm=kJ/mole&tag=r21&monomerid=50143185&enzyme=DNA+gyrase&column=ki&startPg=0&Increment=50&submit=Search

> <Ligand HET ID in PDB>


> <PDB ID(s) for Ligand-Target Complex>


> <PubChem CID>
127026757

> <PubChem SID>
336952904

> <ChEBI ID of Ligand>


> <ChEMBL ID of Ligand>


> <DrugBank ID of Ligand>


> <IUPHAR_GRAC ID of Ligand>


> <KEGG ID of Ligand>


> <ZINC ID of Ligand>


> <Number of Protein Chains in Target (>1 implies a multichain complex)>
1

> <BindingDB Target Chain Sequence>
MVTALSDVNNTDNYGAGQIQVLEGLEAVRKRPGMYIGSTSERGLHHLVWEIVDNSIDEALAGYANQIEVVIEKDNWIKVTDNGRGIPVDIQEKMGRPAVEVILTVLHAGGKFGGGGYKVSGGLHGVGSSVVNALSQDLEVYVHRNETIYHQAYKKGVPQFDLKEVGTTDKTGTVIRFKADGEIFTETTVYNYETLQQRIRELAFLNKGIQITLRDERDEENVREDSYHYEGGIKSYVELLNENKEPIHDEPIYIHQSKDDIEVEIAIQYNSGYATNLLTYANNIHTYEGGTHEDGFKRALTRVLNSYGLSSKIMKEEKDRLSGEDTREGMTAIISIKHGDPQFEGQTKTKLGNSEVRQVVDKLFSEHFERFLYENPQVARTVVEKGIMAARARVAAKKAREVTRRKSALDVASLPGKLADCSSKSPEECEIFLVEGDSAGGSTKSGRDSRTQAILPLRGKILNVEKARLDRILNNNEIRQMITAFGTGIGGDFDLAKARYHKIVIMTDADVDGAHIRTLLLTFFYRFMRPLIEAGYVYIAQPPLYKLTQGKQKYYVYNDRELDKLKSELNPTPKWSIARYKGLGEMNADQLWETTMNPEHRALLQVKLEDAIEADQTFEMLMGDVVENRRQFIEDNAVYANLDF

> <PDB ID(s) of Target Chain>


> <UniProt (SwissProt) Recommended Name of Target Chain>
DNA gyrase subunit B

> <UniProt (SwissProt) Entry Name of Target Chain>
GYRB_STAAU

> <UniProt (SwissProt) Primary ID of Target Chain>
P0A0K8

> <UniProt (SwissProt) Secondary ID(s) of Target Chain>
P20832

> <UniProt (SwissProt) Alternative ID(s) of Target Chain>


> <UniProt (TrEMBL) Submitted Name of Target Chain>


> <UniProt (TrEMBL) Entry Name of Target Chain>


> <UniProt (TrEMBL) Primary ID of Target Chain>


> <UniProt (TrEMBL) Secondary ID(s) of Target Chain>


> <UniProt (TrEMBL) Alternative ID(s) of Target Chain>


$$$$

  SciTegic10241708202D

 31 34  0  0  0  0            999 V2000
   29.3762  -18.1804    0.0000 C   0  0
   29.3751  -18.9999    0.0000 C   0  0
   30.0831  -19.4089    0.0000 C   0  0
   30.0813  -17.7715    0.0000 C   0  0
   30.7899  -18.1768    0.0000 C   0  0
   30.7948  -19.0000    0.0000 C   0  0
   31.5791  -19.2498    0.0000 N   0  0
   32.0591  -18.5810    0.0000 C   0  0
   31.5713  -17.9179    0.0000 C   0  0
   31.8193  -17.1392    0.0000 O   0  0
   32.8763  -18.5761    0.0000 O   0  0
   31.8362  -20.0255    0.0000 C   0  0
   31.2929  -20.6360    0.0000 C   0  0
   31.5500  -21.4117    0.0000 N   0  0
   31.0095  -22.0205    0.0000 C   0  0
   31.2636  -22.7934    0.0000 C   0  0
   32.0634  -22.9628    0.0000 N   0  0
   32.6088  -22.3530    0.0000 C   0  0
   32.3543  -21.5737    0.0000 C   0  0
   32.3175  -23.7395    0.0000 N   0  0
   33.1172  -23.9078    0.0000 C   0  0
   33.6628  -23.2994    0.0000 C   0  0
   34.4615  -23.4714    0.0000 C   0  0
   35.0069  -22.8638    0.0000 C   0  0
   34.7529  -22.0861    0.0000 C   0  0
   33.9485  -21.9196    0.0000 C   0  0
   33.4067  -22.5285    0.0000 C   0  0
   34.7137  -24.2487    0.0000 C   0  0
   34.1665  -24.8557    0.0000 F   0  0
   35.5129  -24.4190    0.0000 F   0  0
   34.9205  -25.0358    0.0000 F   0  0
  1  2  2  0
  2  3  1  0
  3  6  2  0
  5  4  2  0
  4  1  1  0
  5  6  1  0
  6  7  1  0
  7  8  1  0
  8  9  1  0
  9  5  1  0
  9 10  2  0
  8 11  2  0
  7 12  1  0
 12 13  1  0
 13 14  1  0
 14 15  1  0
 14 19  1  0
 15 16  1  0
 16 17  1  0
 17 18  1  0
 18 19  1  0
 17 20  1  0
 20 21  1  0
 21 22  1  0
 22 23  2  0
 23 24  1  0
 24 25  2  0
 25 26  1  0
 26 27  2  0
 27 22  1  0
 23 28  1  0
 28 29  1  0
 28 30  1  0
 28 31  1  0
M  END
> <From> 
www.bindingDB.org

> <BindingDB Reactant_set_id>
50543801

> <Ligand InChI>
InChI=1S/C22H23F3N4O2/c23-22(24,25)18-7-3-1-5-16(18)15-26-28-12-9-27(10-13-28)11-14-29-19-8-4-2-6-17(19)20(30)21(29)31/h1-8,26H,9-15H2

> <Ligand InChI Key>
QKGCUHXFPFLLGT-UHFFFAOYSA-N

> <BindingDB MonomerID>
50208268

> <BindingDB Ligand Name>
CHEMBL3885381

> <Target Name Assigned by Curator or DataSource>
DNA gyrase subunit B

> <Target Source Organism According to Curator or DataSource>


> <Ki (nM)>


> <IC50 (nM)>
 51000

> <Kd (nM)>


> <EC50 (nM)>


> <kon (M-1-s-1)>


> <koff (s-1)>


> <pH>


> <Temp C>


> <Curation/DataSource>
ChEMBL

> <Article DOI>
10.1016/j.ejmech.2016.08.034

> <PMID>
27569197

> <PubChem AID>


> <Patent Number>


> <Authors>
Chaudhari, K; Surana, S; Jain, P; Patel, HM

> <Institution>
R. C. Patel Institute of Pharmaceutical Education and Research

> <Link to Ligand in BindingDB>
http://www.bindingdb.org/bind/chemsearch/marvin/MolStructure.jsp?monomerid=50208268

> <Link to Ligand-Target Pair in BindingDB>
http://www.bindingdb.org/jsp/dbsearch/PrimarySearch_ki.jsp?energyterm=kJ/mole&tag=pol&polymerid=50006452&target=DNA+gyrase+subunit+B&column=ki&startPg=0&Increment=50&submit=Search

> <Link to Ligand-Target Pair in BindingDB>
http://www.bindingdb.org/jsp/dbsearch/PrimarySearch_ki.jsp?energyterm=kJ/mole&tag=r21&monomerid=50208268&enzyme=DNA+gyrase+subunit+B&column=ki&startPg=0&Increment=50&submit=Search

> <Ligand HET ID in PDB>


> <PDB ID(s) for Ligand-Target Complex>


> <PubChem CID>
134131393

> <PubChem SID>
375981961

> <ChEBI ID of Ligand>


> <ChEMBL ID of Ligand>


> <DrugBank ID of Ligand>


> <IUPHAR_GRAC ID of Ligand>


> <KEGG ID of Ligand>


> <ZINC ID of Ligand>


> <Number of Protein Chains in Target (>1 implies a multichain complex)>
1

> <BindingDB Target Chain Sequence>
MAAQKNNAPKEYGADSITILEGLEAVRKRPGMYIGSTGERGLHHLIWEVVDNAVDEAMAGFATRVDVKIHADGSVEVRDDGRGIPVEMHATGMPTIDVVMTQLHAGGKFDGETYAVSGGLHGVGVSVVNALSTRLEATVLRDGYEWFQYYDRSVPGKLKQGGETKETGTTIRFWADPEIFETTDYNFETVARRLQEMAFLNKGLTIELTDERVTAEEVVDDVVKDTAEAPKTADEKAAEATGPSKVKHRVFHYPGGLVDYVKHINRTKTPIQQSIIDFDGKGPGHEVEIAMQWNAGYSESVHTFANTINTHEGGTHEEGFRAALTSVVNRYAKDKKLLKDKDPNLTGDDIREGLAAVISVKVAEPQFEGQTKTKLGNTEVKSFVQKICNEQLQHWFEANPAEAKTVVNKAVSSAQARIAARKARELVRRKSATDIGGLPGKLADCRSTDPSKSELYVVEGDSAGGSAKSGRDSMFQAILPLRGKIINVEKARIDRVLKNTEVQSIITALGTGIHDEFDISKLRYHKIVLMADADVDGQHISTLLLTLLFRFMKPLVENGHIFLAQPPLYKLKWQRSEPEFAYSDRERDGLLEAGRAAGKKINVDDGIQRYKGLGEMDAKELWETTMDPSVRVLRQVTLDDAAAADELFSILMGEDVEARRSFITRNAKDVRFLDV

> <PDB ID(s) of Target Chain>
4BAE

> <UniProt (SwissProt) Recommended Name of Target Chain>
DNA gyrase subunit B

> <UniProt (SwissProt) Entry Name of Target Chain>
GYRB_MYCSM

> <UniProt (SwissProt) Primary ID of Target Chain>
P0C559

> <UniProt (SwissProt) Secondary ID(s) of Target Chain>
P48355,Q59555

> <UniProt (SwissProt) Alternative ID(s) of Target Chain>


> <UniProt (TrEMBL) Submitted Name of Target Chain>


> <UniProt (TrEMBL) Entry Name of Target Chain>


> <UniProt (TrEMBL) Primary ID of Target Chain>


> <UniProt (TrEMBL) Secondary ID(s) of Target Chain>


> <UniProt (TrEMBL) Alternative ID(s) of Target Chain>


$$$$

  SciTegic12221701172D

 29 32  0  0  0  0            999 V2000
   21.9032   -3.3184    0.0000 C   0  0
   21.2001   -3.7302    0.0000 C   0  0
   21.8995   -2.5012    0.0000 O   0  0
   22.6141   -3.7279    0.0000 N   0  0
   23.3214   -3.3161    0.0000 C   0  0
   23.3177   -2.4989    0.0000 C   0  0
   24.0249   -2.0871    0.0000 C   0  0
   24.0212   -1.2699    0.0000 C   0  0
   23.3144   -0.8645    0.0000 C   0  0
   22.6071   -1.2763    0.0000 C   0  0
   22.6067   -2.0935    0.0000 N   0  0
   21.1997   -4.5474    0.0000 N   0  0
   20.4924   -4.9592    0.0000 C   0  0
   20.4961   -5.7763    0.0000 C   0  0
   21.2071   -6.1817    0.0000 N   0  0
   21.9102   -5.7699    0.0000 C   0  0
   21.9106   -4.9527    0.0000 C   0  0
   21.2140   -8.6333    0.0000 N   0  0
   21.9171   -8.2215    0.0000 C   0  0
   21.9176   -7.4043    0.0000 C   0  0
   21.2066   -6.9989    0.0000 C   0  0
   20.5035   -7.4107    0.0000 C   0  0
   19.7926   -7.0053    0.0000 C   0  0
   19.0853   -7.4130    0.0000 C   0  0
   19.0890   -8.2302    0.0000 C   0  0
   19.7959   -8.6397    0.0000 C   0  0
   20.5031   -8.2279    0.0000 C   0  0
   18.3836   -8.6361    0.0000 O   0  0
   18.3849   -9.4533    0.0000 C   0  0
  1  2  1  0
  1  3  2  0
  1  4  1  0
  6  7  1  0
  7  8  2  0
  8  9  1  0
  9 10  2  0
 10 11  1  0
  6 11  2  0
  5  6  1  0
  4  5  1  0
 12 13  1  0
 13 14  1  0
 14 15  1  0
 15 16  1  0
 16 17  1  0
 12 17  1  0
 18 19  2  0
 19 20  1  0
 20 21  2  0
 21 22  1  0
 22 23  2  0
 23 24  1  0
 24 25  2  0
 25 26  1  0
 26 27  2  0
 18 27  1  0
 22 27  1  0
 15 21  1  0
  2 12  1  0
 28 29  1  0
 25 28  1  0
M  END
> <From> 
www.bindingDB.org

> <BindingDB Reactant_set_id>
50528074

> <Ligand InChI>
InChI=1S/C22H25N5O2/c1-29-18-5-6-19-20(14-18)24-9-7-21(19)27-12-10-26(11-13-27)16-22(28)25-15-17-4-2-3-8-23-17/h2-9,14H,10-13,15-16H2,1H3,(H,25,28)

> <Ligand InChI Key>
AZZWEYMIHUODDZ-UHFFFAOYSA-N

> <BindingDB MonomerID>
50202205

> <BindingDB Ligand Name>
CHEMBL3940083

> <Target Name Assigned by Curator or DataSource>
DNA gyrase subunit B

> <Target Source Organism According to Curator or DataSource>


> <Ki (nM)>


> <IC50 (nM)>
 51600

> <Kd (nM)>


> <EC50 (nM)>


> <kon (M-1-s-1)>


> <koff (s-1)>


> <pH>


> <Temp C>


> <Curation/DataSource>
ChEMBL

> <Article DOI>
10.1016/j.ejmech.2016.06.042

> <PMID>
27371925

> <PubChem AID>


> <Patent Number>


> <Authors>
Jeankumar, VU; Reshma, RS; Vats, R; Janupally, R; Saxena, S; Yogeeswari, P; Sriram, D

> <Institution>
Birla Institute of Technology&amp; Science-Pilani

> <Link to Ligand in BindingDB>
http://www.bindingdb.org/bind/chemsearch/marvin/MolStructure.jsp?monomerid=50202205

> <Link to Ligand-Target Pair in BindingDB>
http://www.bindingdb.org/jsp/dbsearch/PrimarySearch_ki.jsp?energyterm=kJ/mole&tag=pol&polymerid=50006452&target=DNA+gyrase+subunit+B&column=ki&startPg=0&Increment=50&submit=Search

> <Link to Ligand-Target Pair in BindingDB>
http://www.bindingdb.org/jsp/dbsearch/PrimarySearch_ki.jsp?energyterm=kJ/mole&tag=r21&monomerid=50202205&enzyme=DNA+gyrase+subunit+B&column=ki&startPg=0&Increment=50&submit=Search

> <Ligand HET ID in PDB>


> <PDB ID(s) for Ligand-Target Complex>


> <PubChem CID>
134148755

> <PubChem SID>
375979586

> <ChEBI ID of Ligand>


> <ChEMBL ID of Ligand>


> <DrugBank ID of Ligand>


> <IUPHAR_GRAC ID of Ligand>


> <KEGG ID of Ligand>


> <ZINC ID of Ligand>


> <Number of Protein Chains in Target (>1 implies a multichain complex)>
1

> <BindingDB Target Chain Sequence>
MAAQKNNAPKEYGADSITILEGLEAVRKRPGMYIGSTGERGLHHLIWEVVDNAVDEAMAGFATRVDVKIHADGSVEVRDDGRGIPVEMHATGMPTIDVVMTQLHAGGKFDGETYAVSGGLHGVGVSVVNALSTRLEATVLRDGYEWFQYYDRSVPGKLKQGGETKETGTTIRFWADPEIFETTDYNFETVARRLQEMAFLNKGLTIELTDERVTAEEVVDDVVKDTAEAPKTADEKAAEATGPSKVKHRVFHYPGGLVDYVKHINRTKTPIQQSIIDFDGKGPGHEVEIAMQWNAGYSESVHTFANTINTHEGGTHEEGFRAALTSVVNRYAKDKKLLKDKDPNLTGDDIREGLAAVISVKVAEPQFEGQTKTKLGNTEVKSFVQKICNEQLQHWFEANPAEAKTVVNKAVSSAQARIAARKARELVRRKSATDIGGLPGKLADCRSTDPSKSELYVVEGDSAGGSAKSGRDSMFQAILPLRGKIINVEKARIDRVLKNTEVQSIITALGTGIHDEFDISKLRYHKIVLMADADVDGQHISTLLLTLLFRFMKPLVENGHIFLAQPPLYKLKWQRSEPEFAYSDRERDGLLEAGRAAGKKINVDDGIQRYKGLGEMDAKELWETTMDPSVRVLRQVTLDDAAAADELFSILMGEDVEARRSFITRNAKDVRFLDV

> <PDB ID(s) of Target Chain>
4BAE

> <UniProt (SwissProt) Recommended Name of Target Chain>
DNA gyrase subunit B

> <UniProt (SwissProt) Entry Name of Target Chain>
GYRB_MYCSM

> <UniProt (SwissProt) Primary ID of Target Chain>
P0C559

> <UniProt (SwissProt) Secondary ID(s) of Target Chain>
P48355,Q59555

> <UniProt (SwissProt) Alternative ID(s) of Target Chain>


> <UniProt (TrEMBL) Submitted Name of Target Chain>


> <UniProt (TrEMBL) Entry Name of Target Chain>


> <UniProt (TrEMBL) Primary ID of Target Chain>


> <UniProt (TrEMBL) Secondary ID(s) of Target Chain>


> <UniProt (TrEMBL) Alternative ID(s) of Target Chain>


$$$$

  Mrv0541 11171616332D          

 32 35  0  0  0  0            999 V2000
   13.6856   -7.7008    0.0000 O   0  0  0  0  0  0  0  0  0  0  0  0
   14.1705   -7.0334    0.0000 C   0  0  0  0  0  0  0  0  0  0  0  0
   13.6856   -6.3660    0.0000 C   0  0  0  0  0  0  0  0  0  0  0  0
   12.9010   -6.6209    0.0000 C   0  0  0  0  0  0  0  0  0  0  0  0
   12.9010   -7.4459    0.0000 C   0  0  0  0  0  0  0  0  0  0  0  0
   12.1865   -6.2084    0.0000 C   0  0  0  0  0  0  0  0  0  0  0  0
   11.4720   -6.6209    0.0000 C   0  0  0  0  0  0  0  0  0  0  0  0
   11.4720   -7.4459    0.0000 C   0  0  0  0  0  0  0  0  0  0  0  0
   12.1865   -7.8584    0.0000 C   0  0  0  0  0  0  0  0  0  0  0  0
   14.9955   -7.0334    0.0000 C   0  0  0  0  0  0  0  0  0  0  0  0
   15.4080   -7.7479    0.0000 O   0  0  0  0  0  0  0  0  0  0  0  0
   15.4080   -6.3189    0.0000 O   0  0  0  0  0  0  0  0  0  0  0  0
   10.7575   -6.2084    0.0000 N   0  0  0  0  0  0  0  0  0  0  0  0
   10.0430   -6.6209    0.0000 C   0  0  0  0  0  0  0  0  0  0  0  0
    9.3286   -6.2084    0.0000 C   0  0  0  0  0  0  0  0  0  0  0  0
    9.3286   -5.3834    0.0000 N   0  0  0  0  0  0  0  0  0  0  0  0
   10.0430   -4.9709    0.0000 C   0  0  0  0  0  0  0  0  0  0  0  0
   10.7575   -5.3834    0.0000 C   0  0  0  0  0  0  0  0  0  0  0  0
    8.6141   -4.9709    0.0000 C   0  0  0  0  0  0  0  0  0  0  0  0
    7.8996   -5.3834    0.0000 C   0  0  0  0  0  0  0  0  0  0  0  0
    7.8996   -6.2084    0.0000 C   0  0  0  0  0  0  0  0  0  0  0  0
    7.1852   -6.6209    0.0000 C   0  0  0  0  0  0  0  0  0  0  0  0
    6.4707   -6.2084    0.0000 C   0  0  0  0  0  0  0  0  0  0  0  0
    6.4707   -5.3834    0.0000 C   0  0  0  0  0  0  0  0  0  0  0  0
    7.1852   -4.9709    0.0000 C   0  0  0  0  0  0  0  0  0  0  0  0
    8.6141   -4.1459    0.0000 O   0  0  0  0  0  0  0  0  0  0  0  0
   16.2330   -6.3189    0.0000 C   0  0  0  0  0  0  0  0  0  0  0  0
   16.6456   -5.6045    0.0000 C   0  0  0  0  0  0  0  0  0  0  0  0
    5.7562   -6.6209    0.0000 C   0  0  0  0  0  0  0  0  0  0  0  0
    5.0418   -6.2084    0.0000 F   0  0  0  0  0  0  0  0  0  0  0  0
    5.7562   -7.4459    0.0000 F   0  0  0  0  0  0  0  0  0  0  0  0
    5.0375   -7.0292    0.0000 F   0  0  0  0  0  0  0  0  0  0  0  0
  1  2  4  0  0  0  0
  2  3  4  0  0  0  0
  3  4  4  0  0  0  0
  4  5  4  0  0  0  0
  1  5  4  0  0  0  0
  6  7  4  0  0  0  0
  7  8  4  0  0  0  0
  8  9  4  0  0  0  0
  5  9  4  0  0  0  0
  4  6  4  0  0  0  0
 10 11  2  0  0  0  0
 10 12  1  0  0  0  0
  2 10  1  0  0  0  0
 13 14  1  0  0  0  0
 14 15  1  0  0  0  0
 15 16  1  0  0  0  0
 16 17  1  0  0  0  0
 17 18  1  0  0  0  0
 13 18  1  0  0  0  0
 19 20  1  0  0  0  0
 20 21  4  0  0  0  0
 21 22  4  0  0  0  0
 22 23  4  0  0  0  0
 23 24  4  0  0  0  0
 24 25  4  0  0  0  0
 20 25  4  0  0  0  0
 19 26  2  0  0  0  0
 16 19  1  0  0  0  0
  7 13  1  0  0  0  0
 27 28  1  0  0  0  0
 12 27  1  0  0  0  0
 23 29  1  0  0  0  0
 29 30  1  0  0  0  0
 29 31  1  0  0  0  0
 29 32  1  0  0  0  0
M  END
> <From> 
www.bindingDB.org

> <BindingDB Reactant_set_id>
50369858

> <Ligand InChI>
InChI=1S/C23H21F3N2O4/c1-2-31-22(30)20-14-16-13-18(7-8-19(16)32-20)27-9-11-28(12-10-27)21(29)15-3-5-17(6-4-15)23(24,25)26/h3-8,13-14H,2,9-12H2,1H3

> <Ligand InChI Key>
QNZLEIMCMTUQOB-UHFFFAOYSA-N

> <BindingDB MonomerID>
50100639

> <BindingDB Ligand Name>
CHEMBL3323248

> <Target Name Assigned by Curator or DataSource>
DNA gyrase subunit B

> <Target Source Organism According to Curator or DataSource>


> <Ki (nM)>


> <IC50 (nM)>
 52100

> <Kd (nM)>


> <EC50 (nM)>


> <kon (M-1-s-1)>


> <koff (s-1)>


> <pH>


> <Temp C>


> <Curation/DataSource>
ChEMBL

> <Article DOI>
10.1016/j.bmc.2014.06.041

> <PMID>
25129171

> <PubChem AID>


> <Patent Number>


> <Authors>
Renuka, J; Reddy, KI; Srihari, K; Jeankumar, VU; Shravan, M; Sridevi, JP; Yogeeswari, P; Babu, KS; Sriram, D

> <Institution>
Institute of Technology&amp; Science-Pilani

> <Link to Ligand in BindingDB>
http://www.bindingdb.org/bind/chemsearch/marvin/MolStructure.jsp?monomerid=50100639

> <Link to Ligand-Target Pair in BindingDB>
http://www.bindingdb.org/jsp/dbsearch/PrimarySearch_ki.jsp?energyterm=kJ/mole&tag=pol&polymerid=50006452&target=DNA+gyrase+subunit+B&column=ki&startPg=0&Increment=50&submit=Search

> <Link to Ligand-Target Pair in BindingDB>
http://www.bindingdb.org/jsp/dbsearch/PrimarySearch_ki.jsp?energyterm=kJ/mole&tag=r21&monomerid=50100639&enzyme=DNA+gyrase+subunit+B&column=ki&startPg=0&Increment=50&submit=Search

> <Ligand HET ID in PDB>


> <PDB ID(s) for Ligand-Target Complex>


> <PubChem CID>
118710629

> <PubChem SID>
318490748

> <ChEBI ID of Ligand>


> <ChEMBL ID of Ligand>


> <DrugBank ID of Ligand>


> <IUPHAR_GRAC ID of Ligand>


> <KEGG ID of Ligand>


> <ZINC ID of Ligand>


> <Number of Protein Chains in Target (>1 implies a multichain complex)>
1

> <BindingDB Target Chain Sequence>
MAAQKNNAPKEYGADSITILEGLEAVRKRPGMYIGSTGERGLHHLIWEVVDNAVDEAMAGFATRVDVKIHADGSVEVRDDGRGIPVEMHATGMPTIDVVMTQLHAGGKFDGETYAVSGGLHGVGVSVVNALSTRLEATVLRDGYEWFQYYDRSVPGKLKQGGETKETGTTIRFWADPEIFETTDYNFETVARRLQEMAFLNKGLTIELTDERVTAEEVVDDVVKDTAEAPKTADEKAAEATGPSKVKHRVFHYPGGLVDYVKHINRTKTPIQQSIIDFDGKGPGHEVEIAMQWNAGYSESVHTFANTINTHEGGTHEEGFRAALTSVVNRYAKDKKLLKDKDPNLTGDDIREGLAAVISVKVAEPQFEGQTKTKLGNTEVKSFVQKICNEQLQHWFEANPAEAKTVVNKAVSSAQARIAARKARELVRRKSATDIGGLPGKLADCRSTDPSKSELYVVEGDSAGGSAKSGRDSMFQAILPLRGKIINVEKARIDRVLKNTEVQSIITALGTGIHDEFDISKLRYHKIVLMADADVDGQHISTLLLTLLFRFMKPLVENGHIFLAQPPLYKLKWQRSEPEFAYSDRERDGLLEAGRAAGKKINVDDGIQRYKGLGEMDAKELWETTMDPSVRVLRQVTLDDAAAADELFSILMGEDVEARRSFITRNAKDVRFLDV

> <PDB ID(s) of Target Chain>
4BAE

> <UniProt (SwissProt) Recommended Name of Target Chain>
DNA gyrase subunit B

> <UniProt (SwissProt) Entry Name of Target Chain>
GYRB_MYCSM

> <UniProt (SwissProt) Primary ID of Target Chain>
P0C559

> <UniProt (SwissProt) Secondary ID(s) of Target Chain>
P48355,Q59555

> <UniProt (SwissProt) Alternative ID(s) of Target Chain>


> <UniProt (TrEMBL) Submitted Name of Target Chain>


> <UniProt (TrEMBL) Entry Name of Target Chain>


> <UniProt (TrEMBL) Primary ID of Target Chain>


> <UniProt (TrEMBL) Secondary ID(s) of Target Chain>


> <UniProt (TrEMBL) Alternative ID(s) of Target Chain>


$$$$

  SciTegic10231713502D

 30 33  0  0  0  0            999 V2000
   13.4740  -18.4074    0.0000 C   0  0
   13.4728  -19.2269    0.0000 C   0  0
   14.1809  -19.6359    0.0000 C   0  0
   14.1791  -17.9985    0.0000 C   0  0
   14.8877  -18.4038    0.0000 C   0  0
   14.8925  -19.2270    0.0000 C   0  0
   15.6769  -19.4768    0.0000 N   0  0
   16.1569  -18.8080    0.0000 C   0  0
   15.6691  -18.1449    0.0000 C   0  0
   15.9171  -17.3662    0.0000 O   0  0
   16.9741  -18.8031    0.0000 O   0  0
   15.9340  -20.2525    0.0000 C   0  0
   15.3907  -20.8630    0.0000 C   0  0
   15.6478  -21.6387    0.0000 N   0  0
   15.1073  -22.2475    0.0000 C   0  0
   15.3614  -23.0204    0.0000 C   0  0
   16.1612  -23.1898    0.0000 N   0  0
   16.7065  -22.5800    0.0000 C   0  0
   16.4521  -21.8007    0.0000 C   0  0
   16.4153  -23.9665    0.0000 N   0  0
   17.2150  -24.1348    0.0000 C   0  0
   17.7605  -23.5264    0.0000 C   0  0
   18.5593  -23.6984    0.0000 C   0  0
   19.1046  -23.0908    0.0000 C   0  0
   18.8507  -22.3131    0.0000 C   0  0
   18.0463  -22.1466    0.0000 C   0  0
   17.5045  -22.7555    0.0000 C   0  0
   18.8115  -24.4757    0.0000 Cl  0  0
   19.9042  -23.2594    0.0000 Cl  0  0
   12.7662  -17.9990    0.0000 C   0  0
  1  2  2  0
  2  3  1  0
  3  6  2  0
  5  4  2  0
  4  1  1  0
  5  6  1  0
  6  7  1  0
  7  8  1  0
  8  9  1  0
  9  5  1  0
  9 10  2  0
  8 11  2  0
  7 12  1  0
 12 13  1  0
 13 14  1  0
 14 15  1  0
 14 19  1  0
 15 16  1  0
 16 17  1  0
 17 18  1  0
 18 19  1  0
 17 20  1  0
 20 21  1  0
 21 22  1  0
 22 23  2  0
 23 24  1  0
 24 25  2  0
 25 26  1  0
 26 27  2  0
 27 22  1  0
 23 28  1  0
 24 29  1  0
  1 30  1  0
M  END
> <From> 
www.bindingDB.org

> <BindingDB Reactant_set_id>
50543808

> <Ligand InChI>
InChI=1S/C22H24Cl2N4O2/c1-15-5-6-19-17(13-15)21(29)22(30)28(19)12-9-26-7-10-27(11-8-26)25-14-16-3-2-4-18(23)20(16)24/h2-6,13,25H,7-12,14H2,1H3

> <Ligand InChI Key>
SEGAYJMOYUFNNE-UHFFFAOYSA-N

> <BindingDB MonomerID>
50208275

> <BindingDB Ligand Name>
CHEMBL3884003

> <Target Name Assigned by Curator or DataSource>
DNA gyrase subunit B

> <Target Source Organism According to Curator or DataSource>


> <Ki (nM)>


> <IC50 (nM)>
 53600

> <Kd (nM)>


> <EC50 (nM)>


> <kon (M-1-s-1)>


> <koff (s-1)>


> <pH>


> <Temp C>


> <Curation/DataSource>
ChEMBL

> <Article DOI>
10.1016/j.ejmech.2016.08.034

> <PMID>
27569197

> <PubChem AID>


> <Patent Number>


> <Authors>
Chaudhari, K; Surana, S; Jain, P; Patel, HM

> <Institution>
R. C. Patel Institute of Pharmaceutical Education and Research

> <Link to Ligand in BindingDB>
http://www.bindingdb.org/bind/chemsearch/marvin/MolStructure.jsp?monomerid=50208275

> <Link to Ligand-Target Pair in BindingDB>
http://www.bindingdb.org/jsp/dbsearch/PrimarySearch_ki.jsp?energyterm=kJ/mole&tag=pol&polymerid=50006452&target=DNA+gyrase+subunit+B&column=ki&startPg=0&Increment=50&submit=Search

> <Link to Ligand-Target Pair in BindingDB>
http://www.bindingdb.org/jsp/dbsearch/PrimarySearch_ki.jsp?energyterm=kJ/mole&tag=r21&monomerid=50208275&enzyme=DNA+gyrase+subunit+B&column=ki&startPg=0&Increment=50&submit=Search

> <Ligand HET ID in PDB>


> <PDB ID(s) for Ligand-Target Complex>


> <PubChem CID>
134130186

> <PubChem SID>
375981968

> <ChEBI ID of Ligand>


> <ChEMBL ID of Ligand>


> <DrugBank ID of Ligand>


> <IUPHAR_GRAC ID of Ligand>


> <KEGG ID of Ligand>


> <ZINC ID of Ligand>


> <Number of Protein Chains in Target (>1 implies a multichain complex)>
1

> <BindingDB Target Chain Sequence>
MAAQKNNAPKEYGADSITILEGLEAVRKRPGMYIGSTGERGLHHLIWEVVDNAVDEAMAGFATRVDVKIHADGSVEVRDDGRGIPVEMHATGMPTIDVVMTQLHAGGKFDGETYAVSGGLHGVGVSVVNALSTRLEATVLRDGYEWFQYYDRSVPGKLKQGGETKETGTTIRFWADPEIFETTDYNFETVARRLQEMAFLNKGLTIELTDERVTAEEVVDDVVKDTAEAPKTADEKAAEATGPSKVKHRVFHYPGGLVDYVKHINRTKTPIQQSIIDFDGKGPGHEVEIAMQWNAGYSESVHTFANTINTHEGGTHEEGFRAALTSVVNRYAKDKKLLKDKDPNLTGDDIREGLAAVISVKVAEPQFEGQTKTKLGNTEVKSFVQKICNEQLQHWFEANPAEAKTVVNKAVSSAQARIAARKARELVRRKSATDIGGLPGKLADCRSTDPSKSELYVVEGDSAGGSAKSGRDSMFQAILPLRGKIINVEKARIDRVLKNTEVQSIITALGTGIHDEFDISKLRYHKIVLMADADVDGQHISTLLLTLLFRFMKPLVENGHIFLAQPPLYKLKWQRSEPEFAYSDRERDGLLEAGRAAGKKINVDDGIQRYKGLGEMDAKELWETTMDPSVRVLRQVTLDDAAAADELFSILMGEDVEARRSFITRNAKDVRFLDV

> <PDB ID(s) of Target Chain>
4BAE

> <UniProt (SwissProt) Recommended Name of Target Chain>
DNA gyrase subunit B

> <UniProt (SwissProt) Entry Name of Target Chain>
GYRB_MYCSM

> <UniProt (SwissProt) Primary ID of Target Chain>
P0C559

> <UniProt (SwissProt) Secondary ID(s) of Target Chain>
P48355,Q59555

> <UniProt (SwissProt) Alternative ID(s) of Target Chain>


> <UniProt (TrEMBL) Submitted Name of Target Chain>


> <UniProt (TrEMBL) Entry Name of Target Chain>


> <UniProt (TrEMBL) Primary ID of Target Chain>


> <UniProt (TrEMBL) Secondary ID(s) of Target Chain>


> <UniProt (TrEMBL) Alternative ID(s) of Target Chain>


$$$$

  Mrv0541 04171609262D          

 31 34  0  0  0  0            999 V2000
   -1.4361    0.4117    0.0000 C   0  0  0  0  0  0  0  0  0  0  0  0
   -1.4361   -0.4117    0.0000 C   0  0  0  0  0  0  0  0  0  0  0  0
   -0.7130   -0.8235    0.0000 C   0  0  0  0  0  0  0  0  0  0  0  0
   -0.7130    0.8235    0.0000 C   0  0  0  0  0  0  0  0  0  0  0  0
    0.0000    0.4117    0.0000 C   0  0  0  0  0  0  0  0  0  0  0  0
    0.0000   -0.4117    0.0000 C   0  0  0  0  0  0  0  0  0  0  0  0
    0.7130   -0.8235    0.0000 N   0  0  0  0  0  0  0  0  0  0  0  0
    1.4261   -0.4117    0.0000 C   0  0  0  0  0  0  0  0  0  0  0  0
    1.4261    0.4117    0.0000 C   0  0  0  0  0  0  0  0  0  0  0  0
    0.7130    0.8235    0.0000 C   0  0  0  0  0  0  0  0  0  0  0  0
    0.7130    1.6489    0.0000 N   0  0  0  0  0  0  0  0  0  0  0  0
   -0.0008    2.0627    0.0000 C   0  0  0  0  0  0  0  0  0  0  0  0
    0.0006    2.8877    0.0000 C   0  0  0  0  0  0  0  0  0  0  0  0
    0.7158    3.2990    0.0000 C   0  0  0  0  0  0  0  0  0  0  0  0
    1.4296    2.8853    0.0000 C   0  0  0  0  0  0  0  0  0  0  0  0
    1.4282    2.0603    0.0000 C   0  0  0  0  0  0  0  0  0  0  0  0
    0.7188    4.1245    0.0000 N   0  0  0  0  0  0  0  0  0  0  0  0
    1.4350    4.5350    0.0000 C   0  0  0  0  0  0  0  0  0  0  0  0
    2.0054    4.2031    0.0000 S   0  0  0  0  0  0  0  0  0  0  0  0
    1.4380    5.3604    0.0000 N   0  0  0  0  0  0  0  0  0  0  0  0
    2.1541    5.7709    0.0000 C   0  0  0  0  0  0  0  0  0  0  0  0
    2.1584    6.5960    0.0000 C   0  0  0  0  0  0  0  0  0  0  0  0
    2.8750    7.0048    0.0000 C   0  0  0  0  0  0  0  0  0  0  0  0
    3.5873    6.5887    0.0000 C   0  0  0  0  0  0  0  0  0  0  0  0
    3.5831    5.7637    0.0000 C   0  0  0  0  0  0  0  0  0  0  0  0
    2.8666    5.3548    0.0000 C   0  0  0  0  0  0  0  0  0  0  0  0
    1.9977   -0.7417    0.0000 C   0  0  0  0  0  0  0  0  0  0  0  0
    4.3051    6.9962    0.0000 N   0  3  0  0  0  0  0  0  0  0  0  0
    4.8746    6.6626    0.0000 O   0  0  0  0  0  0  0  0  0  0  0  0
    4.3096    7.6562    0.0000 O   0  5  0  0  0  0  0  0  0  0  0  0
   -2.0067    0.7434    0.0000 F   0  0  0  0  0  0  0  0  0  0  0  0
  1  2  4  0  0  0  0
  2  3  4  0  0  0  0
  3  6  4  0  0  0  0
  5  4  4  0  0  0  0
  4  1  4  0  0  0  0
  5  6  4  0  0  0  0
  6  7  4  0  0  0  0
  7  8  4  0  0  0  0
  8  9  4  0  0  0  0
  9 10  4  0  0  0  0
 10  5  4  0  0  0  0
 11 12  1  0  0  0  0
 11 16  1  0  0  0  0
 12 13  1  0  0  0  0
 13 14  1  0  0  0  0
 14 15  1  0  0  0  0
 15 16  1  0  0  0  0
 10 11  1  0  0  0  0
 14 17  1  0  0  0  0
 17 18  1  0  0  0  0
 18 19  2  0  0  0  0
 18 20  1  0  0  0  0
 20 21  1  0  0  0  0
 21 22  4  0  0  0  0
 22 23  4  0  0  0  0
 23 24  4  0  0  0  0
 24 25  4  0  0  0  0
 25 26  4  0  0  0  0
 26 21  4  0  0  0  0
  8 27  1  0  0  0  0
 24 28  1  0  0  0  0
 28 29  2  0  0  0  0
 28 30  1  0  0  0  0
  1 31  1  0  0  0  0
M  CHG  2  28   1  30  -1
M  END
> <From> 
www.bindingDB.org

> <BindingDB Reactant_set_id>
50303814

> <Ligand InChI>
InChI=1S/C22H22FN5O2S/c1-14-12-21(19-13-15(23)2-7-20(19)24-14)27-10-8-17(9-11-27)26-22(31)25-16-3-5-18(6-4-16)28(29)30/h2-7,12-13,17H,8-11H2,1H3,(H2,25,26,31)

> <Ligand InChI Key>
UXMRIIRRJROBBU-UHFFFAOYSA-N

> <BindingDB MonomerID>
50067160

> <BindingDB Ligand Name>
CHEMBL3400181

> <Target Name Assigned by Curator or DataSource>
DNA gyrase subunit B

> <Target Source Organism According to Curator or DataSource>


> <Ki (nM)>


> <IC50 (nM)>
 56150

> <Kd (nM)>


> <EC50 (nM)>


> <kon (M-1-s-1)>


> <koff (s-1)>


> <pH>


> <Temp C>


> <Curation/DataSource>
ChEMBL

> <Article DOI>
10.1016/j.bmc.2015.03.004

> <PMID>
25801151

> <PubChem AID>


> <Patent Number>


> <Authors>
Medapi, B; Renuka, J; Saxena, S; Sridevi, JP; Medishetti, R; Kulkarni, P; Yogeeswari, P; Sriram, D

> <Institution>
Birla Institute of Technology&amp; Science-Pilani

> <Link to Ligand in BindingDB>
http://www.bindingdb.org/bind/chemsearch/marvin/MolStructure.jsp?monomerid=50067160

> <Link to Ligand-Target Pair in BindingDB>
http://www.bindingdb.org/jsp/dbsearch/PrimarySearch_ki.jsp?energyterm=kJ/mole&tag=pol&polymerid=50006452&target=DNA+gyrase+subunit+B&column=ki&startPg=0&Increment=50&submit=Search

> <Link to Ligand-Target Pair in BindingDB>
http://www.bindingdb.org/jsp/dbsearch/PrimarySearch_ki.jsp?energyterm=kJ/mole&tag=r21&monomerid=50067160&enzyme=DNA+gyrase+subunit+B&column=ki&startPg=0&Increment=50&submit=Search

> <Ligand HET ID in PDB>


> <PDB ID(s) for Ligand-Target Complex>


> <PubChem CID>
118729697

> <PubChem SID>
313071790

> <ChEBI ID of Ligand>


> <ChEMBL ID of Ligand>


> <DrugBank ID of Ligand>


> <IUPHAR_GRAC ID of Ligand>


> <KEGG ID of Ligand>


> <ZINC ID of Ligand>


> <Number of Protein Chains in Target (>1 implies a multichain complex)>
1

> <BindingDB Target Chain Sequence>
MAAQKNNAPKEYGADSITILEGLEAVRKRPGMYIGSTGERGLHHLIWEVVDNAVDEAMAGFATRVDVKIHADGSVEVRDDGRGIPVEMHATGMPTIDVVMTQLHAGGKFDGETYAVSGGLHGVGVSVVNALSTRLEATVLRDGYEWFQYYDRSVPGKLKQGGETKETGTTIRFWADPEIFETTDYNFETVARRLQEMAFLNKGLTIELTDERVTAEEVVDDVVKDTAEAPKTADEKAAEATGPSKVKHRVFHYPGGLVDYVKHINRTKTPIQQSIIDFDGKGPGHEVEIAMQWNAGYSESVHTFANTINTHEGGTHEEGFRAALTSVVNRYAKDKKLLKDKDPNLTGDDIREGLAAVISVKVAEPQFEGQTKTKLGNTEVKSFVQKICNEQLQHWFEANPAEAKTVVNKAVSSAQARIAARKARELVRRKSATDIGGLPGKLADCRSTDPSKSELYVVEGDSAGGSAKSGRDSMFQAILPLRGKIINVEKARIDRVLKNTEVQSIITALGTGIHDEFDISKLRYHKIVLMADADVDGQHISTLLLTLLFRFMKPLVENGHIFLAQPPLYKLKWQRSEPEFAYSDRERDGLLEAGRAAGKKINVDDGIQRYKGLGEMDAKELWETTMDPSVRVLRQVTLDDAAAADELFSILMGEDVEARRSFITRNAKDVRFLDV

> <PDB ID(s) of Target Chain>
4BAE

> <UniProt (SwissProt) Recommended Name of Target Chain>
DNA gyrase subunit B

> <UniProt (SwissProt) Entry Name of Target Chain>
GYRB_MYCSM

> <UniProt (SwissProt) Primary ID of Target Chain>
P0C559

> <UniProt (SwissProt) Secondary ID(s) of Target Chain>
P48355,Q59555

> <UniProt (SwissProt) Alternative ID(s) of Target Chain>


> <UniProt (TrEMBL) Submitted Name of Target Chain>


> <UniProt (TrEMBL) Entry Name of Target Chain>


> <UniProt (TrEMBL) Primary ID of Target Chain>


> <UniProt (TrEMBL) Secondary ID(s) of Target Chain>


> <UniProt (TrEMBL) Alternative ID(s) of Target Chain>


$$$$

  Mrv0541 04171609262D          

 29 32  0  0  0  0            999 V2000
   -1.4361    0.4117    0.0000 C   0  0  0  0  0  0  0  0  0  0  0  0
   -1.4361   -0.4117    0.0000 C   0  0  0  0  0  0  0  0  0  0  0  0
   -0.7130   -0.8235    0.0000 C   0  0  0  0  0  0  0  0  0  0  0  0
   -0.7130    0.8235    0.0000 C   0  0  0  0  0  0  0  0  0  0  0  0
    0.0000    0.4117    0.0000 C   0  0  0  0  0  0  0  0  0  0  0  0
    0.0000   -0.4117    0.0000 C   0  0  0  0  0  0  0  0  0  0  0  0
    0.7130   -0.8235    0.0000 N   0  0  0  0  0  0  0  0  0  0  0  0
    1.4261   -0.4117    0.0000 C   0  0  0  0  0  0  0  0  0  0  0  0
    1.4261    0.4117    0.0000 C   0  0  0  0  0  0  0  0  0  0  0  0
    0.7130    0.8235    0.0000 C   0  0  0  0  0  0  0  0  0  0  0  0
    0.7130    1.6489    0.0000 N   0  0  0  0  0  0  0  0  0  0  0  0
   -0.0008    2.0627    0.0000 C   0  0  0  0  0  0  0  0  0  0  0  0
    0.0006    2.8877    0.0000 C   0  0  0  0  0  0  0  0  0  0  0  0
    0.7158    3.2990    0.0000 C   0  0  0  0  0  0  0  0  0  0  0  0
    1.4296    2.8853    0.0000 C   0  0  0  0  0  0  0  0  0  0  0  0
    1.4282    2.0603    0.0000 C   0  0  0  0  0  0  0  0  0  0  0  0
    0.7188    4.1245    0.0000 N   0  0  0  0  0  0  0  0  0  0  0  0
    1.4350    4.5350    0.0000 C   0  0  0  0  0  0  0  0  0  0  0  0
    2.0054    4.2031    0.0000 S   0  0  0  0  0  0  0  0  0  0  0  0
    1.4380    5.3605    0.0000 N   0  0  0  0  0  0  0  0  0  0  0  0
    2.1542    5.7710    0.0000 C   0  0  0  0  0  0  0  0  0  0  0  0
    2.1584    6.5960    0.0000 C   0  0  0  0  0  0  0  0  0  0  0  0
    2.8750    7.0049    0.0000 C   0  0  0  0  0  0  0  0  0  0  0  0
    3.5874    6.5888    0.0000 C   0  0  0  0  0  0  0  0  0  0  0  0
    3.5831    5.7637    0.0000 C   0  0  0  0  0  0  0  0  0  0  0  0
    2.8666    5.3549    0.0000 C   0  0  0  0  0  0  0  0  0  0  0  0
    1.9977   -0.7417    0.0000 C   0  0  0  0  0  0  0  0  0  0  0  0
    4.1606    6.9158    0.0000 C   0  0  0  0  0  0  0  0  0  0  0  0
   -2.0068    0.7434    0.0000 F   0  0  0  0  0  0  0  0  0  0  0  0
  1  2  4  0  0  0  0
  2  3  4  0  0  0  0
  3  6  4  0  0  0  0
  5  4  4  0  0  0  0
  4  1  4  0  0  0  0
  5  6  4  0  0  0  0
  6  7  4  0  0  0  0
  7  8  4  0  0  0  0
  8  9  4  0  0  0  0
  9 10  4  0  0  0  0
 10  5  4  0  0  0  0
 11 12  1  0  0  0  0
 11 16  1  0  0  0  0
 12 13  1  0  0  0  0
 13 14  1  0  0  0  0
 14 15  1  0  0  0  0
 15 16  1  0  0  0  0
 10 11  1  0  0  0  0
 14 17  1  0  0  0  0
 17 18  1  0  0  0  0
 18 19  2  0  0  0  0
 18 20  1  0  0  0  0
 20 21  1  0  0  0  0
 21 22  4  0  0  0  0
 22 23  4  0  0  0  0
 23 24  4  0  0  0  0
 24 25  4  0  0  0  0
 25 26  4  0  0  0  0
 26 21  4  0  0  0  0
  8 27  1  0  0  0  0
 24 28  1  0  0  0  0
  1 29  1  0  0  0  0
M  END
> <From> 
www.bindingDB.org

> <BindingDB Reactant_set_id>
50303812

> <Ligand InChI>
InChI=1S/C23H25FN4S/c1-15-3-6-18(7-4-15)26-23(29)27-19-9-11-28(12-10-19)22-13-16(2)25-21-8-5-17(24)14-20(21)22/h3-8,13-14,19H,9-12H2,1-2H3,(H2,26,27,29)

> <Ligand InChI Key>
PNDARLUMDLGPEX-UHFFFAOYSA-N

> <BindingDB MonomerID>
50067161

> <BindingDB Ligand Name>
CHEMBL3403281

> <Target Name Assigned by Curator or DataSource>
DNA gyrase subunit B

> <Target Source Organism According to Curator or DataSource>


> <Ki (nM)>


> <IC50 (nM)>
 59300

> <Kd (nM)>


> <EC50 (nM)>


> <kon (M-1-s-1)>


> <koff (s-1)>


> <pH>


> <Temp C>


> <Curation/DataSource>
ChEMBL

> <Article DOI>
10.1016/j.bmc.2015.03.004

> <PMID>
25801151

> <PubChem AID>


> <Patent Number>


> <Authors>
Medapi, B; Renuka, J; Saxena, S; Sridevi, JP; Medishetti, R; Kulkarni, P; Yogeeswari, P; Sriram, D

> <Institution>
Birla Institute of Technology&amp; Science-Pilani

> <Link to Ligand in BindingDB>
http://www.bindingdb.org/bind/chemsearch/marvin/MolStructure.jsp?monomerid=50067161

> <Link to Ligand-Target Pair in BindingDB>
http://www.bindingdb.org/jsp/dbsearch/PrimarySearch_ki.jsp?energyterm=kJ/mole&tag=pol&polymerid=50006452&target=DNA+gyrase+subunit+B&column=ki&startPg=0&Increment=50&submit=Search

> <Link to Ligand-Target Pair in BindingDB>
http://www.bindingdb.org/jsp/dbsearch/PrimarySearch_ki.jsp?energyterm=kJ/mole&tag=r21&monomerid=50067161&enzyme=DNA+gyrase+subunit+B&column=ki&startPg=0&Increment=50&submit=Search

> <Ligand HET ID in PDB>


> <PDB ID(s) for Ligand-Target Complex>


> <PubChem CID>
118729698

> <PubChem SID>
313071791

> <ChEBI ID of Ligand>


> <ChEMBL ID of Ligand>


> <DrugBank ID of Ligand>


> <IUPHAR_GRAC ID of Ligand>


> <KEGG ID of Ligand>


> <ZINC ID of Ligand>


> <Number of Protein Chains in Target (>1 implies a multichain complex)>
1

> <BindingDB Target Chain Sequence>
MAAQKNNAPKEYGADSITILEGLEAVRKRPGMYIGSTGERGLHHLIWEVVDNAVDEAMAGFATRVDVKIHADGSVEVRDDGRGIPVEMHATGMPTIDVVMTQLHAGGKFDGETYAVSGGLHGVGVSVVNALSTRLEATVLRDGYEWFQYYDRSVPGKLKQGGETKETGTTIRFWADPEIFETTDYNFETVARRLQEMAFLNKGLTIELTDERVTAEEVVDDVVKDTAEAPKTADEKAAEATGPSKVKHRVFHYPGGLVDYVKHINRTKTPIQQSIIDFDGKGPGHEVEIAMQWNAGYSESVHTFANTINTHEGGTHEEGFRAALTSVVNRYAKDKKLLKDKDPNLTGDDIREGLAAVISVKVAEPQFEGQTKTKLGNTEVKSFVQKICNEQLQHWFEANPAEAKTVVNKAVSSAQARIAARKARELVRRKSATDIGGLPGKLADCRSTDPSKSELYVVEGDSAGGSAKSGRDSMFQAILPLRGKIINVEKARIDRVLKNTEVQSIITALGTGIHDEFDISKLRYHKIVLMADADVDGQHISTLLLTLLFRFMKPLVENGHIFLAQPPLYKLKWQRSEPEFAYSDRERDGLLEAGRAAGKKINVDDGIQRYKGLGEMDAKELWETTMDPSVRVLRQVTLDDAAAADELFSILMGEDVEARRSFITRNAKDVRFLDV

> <PDB ID(s) of Target Chain>
4BAE

> <UniProt (SwissProt) Recommended Name of Target Chain>
DNA gyrase subunit B

> <UniProt (SwissProt) Entry Name of Target Chain>
GYRB_MYCSM

> <UniProt (SwissProt) Primary ID of Target Chain>
P0C559

> <UniProt (SwissProt) Secondary ID(s) of Target Chain>
P48355,Q59555

> <UniProt (SwissProt) Alternative ID(s) of Target Chain>


> <UniProt (TrEMBL) Submitted Name of Target Chain>


> <UniProt (TrEMBL) Entry Name of Target Chain>


> <UniProt (TrEMBL) Primary ID of Target Chain>


> <UniProt (TrEMBL) Secondary ID(s) of Target Chain>


> <UniProt (TrEMBL) Alternative ID(s) of Target Chain>


$$$$

  SciTegic10231714372D

 33 36  0  0  0  0            999 V2000
    9.2436   -1.9893    0.0000 C   0  0
    9.2424   -2.8088    0.0000 C   0  0
    9.9505   -3.2178    0.0000 C   0  0
    9.9487   -1.5804    0.0000 C   0  0
   10.6573   -1.9857    0.0000 C   0  0
   10.6621   -2.8088    0.0000 C   0  0
   11.4465   -3.0587    0.0000 N   0  0
   11.9265   -2.3898    0.0000 C   0  0
   11.4387   -1.7268    0.0000 C   0  0
   11.6866   -0.9481    0.0000 O   0  0
   12.7437   -2.3850    0.0000 O   0  0
   11.7036   -3.8344    0.0000 C   0  0
   11.1603   -4.4448    0.0000 C   0  0
   11.4173   -5.2206    0.0000 N   0  0
   10.8769   -5.8293    0.0000 C   0  0
   11.1310   -6.6023    0.0000 C   0  0
   11.9308   -6.7717    0.0000 N   0  0
   12.4761   -6.1619    0.0000 C   0  0
   12.2217   -5.3825    0.0000 C   0  0
   12.1849   -7.5484    0.0000 N   0  0
   12.9846   -7.7167    0.0000 C   0  0
   13.5301   -7.1083    0.0000 C   0  0
   14.3289   -7.2803    0.0000 C   0  0
   14.8742   -6.6727    0.0000 C   0  0
   14.6203   -5.8950    0.0000 C   0  0
   13.8159   -5.7284    0.0000 C   0  0
   13.2741   -6.3374    0.0000 C   0  0
   14.5810   -8.0576    0.0000 C   0  0
   14.0339   -8.6646    0.0000 F   0  0
   15.3803   -8.2279    0.0000 F   0  0
   14.7879   -8.8447    0.0000 F   0  0
    8.5358   -1.5809    0.0000 O   0  0
    8.5356   -0.7637    0.0000 C   0  0
  1  2  2  0
  2  3  1  0
  3  6  2  0
  5  4  2  0
  4  1  1  0
  5  6  1  0
  6  7  1  0
  7  8  1  0
  8  9  1  0
  9  5  1  0
  9 10  2  0
  8 11  2  0
  7 12  1  0
 12 13  1  0
 13 14  1  0
 14 15  1  0
 14 19  1  0
 15 16  1  0
 16 17  1  0
 17 18  1  0
 18 19  1  0
 17 20  1  0
 20 21  1  0
 21 22  1  0
 22 23  2  0
 23 24  1  0
 24 25  2  0
 25 26  1  0
 26 27  2  0
 27 22  1  0
 23 28  1  0
 28 29  1  0
 28 30  1  0
 28 31  1  0
  1 32  1  0
 32 33  1  0
M  END
> <From> 
www.bindingDB.org

> <BindingDB Reactant_set_id>
50543796

> <Ligand InChI>
InChI=1S/C23H25F3N4O3/c1-33-17-6-7-20-18(14-17)21(31)22(32)30(20)13-10-28-8-11-29(12-9-28)27-15-16-4-2-3-5-19(16)23(24,25)26/h2-7,14,27H,8-13,15H2,1H3

> <Ligand InChI Key>
AGVMYIOYLYJCDU-UHFFFAOYSA-N

> <BindingDB MonomerID>
50208264

> <BindingDB Ligand Name>
CHEMBL3884284

> <Target Name Assigned by Curator or DataSource>
DNA gyrase subunit B

> <Target Source Organism According to Curator or DataSource>


> <Ki (nM)>


> <IC50 (nM)>
 61500

> <Kd (nM)>


> <EC50 (nM)>


> <kon (M-1-s-1)>


> <koff (s-1)>


> <pH>


> <Temp C>


> <Curation/DataSource>
ChEMBL

> <Article DOI>
10.1016/j.ejmech.2016.08.034

> <PMID>
27569197

> <PubChem AID>


> <Patent Number>


> <Authors>
Chaudhari, K; Surana, S; Jain, P; Patel, HM

> <Institution>
R. C. Patel Institute of Pharmaceutical Education and Research

> <Link to Ligand in BindingDB>
http://www.bindingdb.org/bind/chemsearch/marvin/MolStructure.jsp?monomerid=50208264

> <Link to Ligand-Target Pair in BindingDB>
http://www.bindingdb.org/jsp/dbsearch/PrimarySearch_ki.jsp?energyterm=kJ/mole&tag=pol&polymerid=50006452&target=DNA+gyrase+subunit+B&column=ki&startPg=0&Increment=50&submit=Search

> <Link to Ligand-Target Pair in BindingDB>
http://www.bindingdb.org/jsp/dbsearch/PrimarySearch_ki.jsp?energyterm=kJ/mole&tag=r21&monomerid=50208264&enzyme=DNA+gyrase+subunit+B&column=ki&startPg=0&Increment=50&submit=Search

> <Ligand HET ID in PDB>


> <PDB ID(s) for Ligand-Target Complex>


> <PubChem CID>
134130038

> <PubChem SID>
375981957

> <ChEBI ID of Ligand>


> <ChEMBL ID of Ligand>


> <DrugBank ID of Ligand>


> <IUPHAR_GRAC ID of Ligand>


> <KEGG ID of Ligand>


> <ZINC ID of Ligand>


> <Number of Protein Chains in Target (>1 implies a multichain complex)>
1

> <BindingDB Target Chain Sequence>
MAAQKNNAPKEYGADSITILEGLEAVRKRPGMYIGSTGERGLHHLIWEVVDNAVDEAMAGFATRVDVKIHADGSVEVRDDGRGIPVEMHATGMPTIDVVMTQLHAGGKFDGETYAVSGGLHGVGVSVVNALSTRLEATVLRDGYEWFQYYDRSVPGKLKQGGETKETGTTIRFWADPEIFETTDYNFETVARRLQEMAFLNKGLTIELTDERVTAEEVVDDVVKDTAEAPKTADEKAAEATGPSKVKHRVFHYPGGLVDYVKHINRTKTPIQQSIIDFDGKGPGHEVEIAMQWNAGYSESVHTFANTINTHEGGTHEEGFRAALTSVVNRYAKDKKLLKDKDPNLTGDDIREGLAAVISVKVAEPQFEGQTKTKLGNTEVKSFVQKICNEQLQHWFEANPAEAKTVVNKAVSSAQARIAARKARELVRRKSATDIGGLPGKLADCRSTDPSKSELYVVEGDSAGGSAKSGRDSMFQAILPLRGKIINVEKARIDRVLKNTEVQSIITALGTGIHDEFDISKLRYHKIVLMADADVDGQHISTLLLTLLFRFMKPLVENGHIFLAQPPLYKLKWQRSEPEFAYSDRERDGLLEAGRAAGKKINVDDGIQRYKGLGEMDAKELWETTMDPSVRVLRQVTLDDAAAADELFSILMGEDVEARRSFITRNAKDVRFLDV

> <PDB ID(s) of Target Chain>
4BAE

> <UniProt (SwissProt) Recommended Name of Target Chain>
DNA gyrase subunit B

> <UniProt (SwissProt) Entry Name of Target Chain>
GYRB_MYCSM

> <UniProt (SwissProt) Primary ID of Target Chain>
P0C559

> <UniProt (SwissProt) Secondary ID(s) of Target Chain>
P48355,Q59555

> <UniProt (SwissProt) Alternative ID(s) of Target Chain>


> <UniProt (TrEMBL) Submitted Name of Target Chain>


> <UniProt (TrEMBL) Entry Name of Target Chain>


> <UniProt (TrEMBL) Primary ID of Target Chain>


> <UniProt (TrEMBL) Secondary ID(s) of Target Chain>


> <UniProt (TrEMBL) Alternative ID(s) of Target Chain>


$$$$

  Mrv0541 04241520572D          

 15 16  0  0  0  0            999 V2000
    3.4529   -1.9614    0.0000 N   0  0  0  0  0  0  0  0  0  0  0  0
    3.0342   -2.6691    0.0000 C   0  0  0  0  0  0  0  0  0  0  0  0
    3.4365   -3.3892    0.0000 O   0  0  0  0  0  0  0  0  0  0  0  0
    2.2089   -2.6565    0.0000 N   0  0  0  0  0  0  0  0  0  0  0  0
    1.7861   -3.3684    0.0000 C   0  0  0  0  0  0  0  0  0  0  0  0
    0.9609   -3.3559    0.0000 C   0  0  0  0  0  0  0  0  0  0  0  0
    4.2781   -1.9697    0.0000 C   0  0  0  0  0  0  0  0  0  0  0  0
    4.7723   -1.3098    0.0000 N   0  0  0  0  0  0  0  0  0  0  0  0
    5.5561   -1.5744    0.0000 C   0  0  0  0  0  0  0  0  0  0  0  0
    5.5436   -2.3996    0.0000 C   0  0  0  0  0  0  0  0  0  0  0  0
    4.7536   -2.6451    0.0000 N   0  0  0  0  0  0  0  0  0  0  0  0
    6.2764   -1.1721    0.0000 C   0  0  0  0  0  0  0  0  0  0  0  0
    6.9840   -1.5950    0.0000 C   0  0  0  0  0  0  0  0  0  0  0  0
    6.9715   -2.4202    0.0000 C   0  0  0  0  0  0  0  0  0  0  0  0
    6.2513   -2.8225    0.0000 C   0  0  0  0  0  0  0  0  0  0  0  0
  1  2  1  0  0  0  0
  2  3  2  0  0  0  0
  2  4  1  0  0  0  0
  5  6  1  0  0  0  0
  4  5  1  0  0  0  0
  7  8  4  0  0  0  0
  8  9  4  0  0  0  0
  9 10  4  0  0  0  0
 10 11  4  0  0  0  0
  7 11  4  0  0  0  0
 12 13  4  0  0  0  0
 13 14  4  0  0  0  0
 14 15  4  0  0  0  0
 10 15  4  0  0  0  0
  9 12  4  0  0  0  0
  1  7  1  0  0  0  0
M  STY  1   1 DAT
M  SAL   1  1  11
M  SDT   1 MRV_IMPLICIT_H                                        
M  SDD   1     0.0000    0.0000    DR    ALL  0       0  
M  SED   1 IMPL_H1
M  END
> <From> 
www.bindingDB.org

> <BindingDB Reactant_set_id>
50083242

> <Ligand InChI>
InChI=1S/C10H12N4O/c1-2-11-10(15)14-9-12-7-5-3-4-6-8(7)13-9/h3-6H,2H2,1H3,(H3,11,12,13,14,15)

> <Ligand InChI Key>
XEISFTZDRRYOFW-UHFFFAOYSA-N

> <BindingDB MonomerID>
50006451

> <BindingDB Ligand Name>
CHEMBL3235060

> <Target Name Assigned by Curator or DataSource>
DNA Gyrase Subunit B

> <Target Source Organism According to Curator or DataSource>
Staphylococcus aureus

> <Ki (nM)>


> <IC50 (nM)>
 64000

> <Kd (nM)>


> <EC50 (nM)>


> <kon (M-1-s-1)>


> <koff (s-1)>


> <pH>


> <Temp C>


> <Curation/DataSource>
ChEMBL

> <Article DOI>
10.1021/jm401208b

> <PMID>
24098982

> <PubChem AID>


> <Patent Number>


> <Authors>
Basarab, GS; Basarab, GS; Boriack-Sjodin, PA; Boriack-Sjodin, PA; Illingworth, R; Illingworth, R; Manchester, JI; Manchester, JI; Dangel, B; Dangel, B; Sriram, S; Sriram, S

> <Institution>
AstraZeneca R&amp;D Boston

> <Link to Ligand in BindingDB>
http://www.bindingdb.org/bind/chemsearch/marvin/MolStructure.jsp?monomerid=50006451

> <Link to Ligand-Target Pair in BindingDB>
http://www.bindingdb.org/jsp/dbsearch/PrimarySearch_ki.jsp?energyterm=kJ/mole&tag=pol&polymerid=2626&target=DNA+Gyrase+Subunit+B&column=ki&startPg=0&Increment=50&submit=Search

> <Link to Ligand-Target Pair in BindingDB>
http://www.bindingdb.org/jsp/dbsearch/PrimarySearch_ki.jsp?energyterm=kJ/mole&tag=r21&monomerid=50006451&enzyme=DNA+Gyrase+Subunit+B&column=ki&startPg=0&Increment=50&submit=Search

> <Ligand HET ID in PDB>


> <PDB ID(s) for Ligand-Target Complex>


> <PubChem CID>
315795

> <PubChem SID>
242057004

> <ChEBI ID of Ligand>


> <ChEMBL ID of Ligand>
CHEMBL3235060

> <DrugBank ID of Ligand>


> <IUPHAR_GRAC ID of Ligand>


> <KEGG ID of Ligand>


> <ZINC ID of Ligand>


> <Number of Protein Chains in Target (>1 implies a multichain complex)>
1

> <BindingDB Target Chain Sequence>
MVTALSDVNNTDNYGAGQIQVLEGLEAVRKRPGMYIGSTSERGLHHLVWEIVDNSIDEALAGYANQIEVVIEKDNWIKVTDNGRGIPVDIQEKMGRPAVEVILTVLHAGGKFGGGGYKVSGGLHGVGSSVVNALSQDLEVYVHRNETIYHQAYKKGVPQFDLKEVGTTDKTGTVIRFKADGEIFTETTVYNYETLQQRIRELAFLNKGIQITLRDERDEENVREDSYHYEGGIKSYVELLNENKEPIHDEPIYIHQSKDDIEVEIAIQYNSGYATNLLTYANNIHTYEGGTHEDGFKRALTRVLNSYGLSSKIMKEEKDRLSGEDTREGMTAIISIKHGDPQFEGQTKTKLGNSEVRQVVDKLFSEHFERFLYENPQVARTVVEKGIMAARARVAAKKAREVTRRKSALDVASLPGKLADCSSKSPEECEIFLVEGDSAGGSTKSGRDSRTQAILPLRGKILNVEKARLDRILNNNEIRQMITAFGTGIGGDFDLAKARYHKIVIMTDADVDGAHIRTLLLTFFYRFMRPLIEAGYVYIAQPPLYKLTQGKQKYYVYNDRELDKLKSELNPTPKWSIARYKGLGEMNADQLWETTMNPEHRALLQVKLEDAIEADQTFEMLMGDVVENRRQFIEDNAVYANLDF

> <PDB ID(s) of Target Chain>


> <UniProt (SwissProt) Recommended Name of Target Chain>
DNA gyrase subunit B

> <UniProt (SwissProt) Entry Name of Target Chain>
GYRB_STAAU

> <UniProt (SwissProt) Primary ID of Target Chain>
P0A0K8

> <UniProt (SwissProt) Secondary ID(s) of Target Chain>
P20832

> <UniProt (SwissProt) Alternative ID(s) of Target Chain>


> <UniProt (TrEMBL) Submitted Name of Target Chain>


> <UniProt (TrEMBL) Entry Name of Target Chain>


> <UniProt (TrEMBL) Primary ID of Target Chain>


> <UniProt (TrEMBL) Secondary ID(s) of Target Chain>


> <UniProt (TrEMBL) Alternative ID(s) of Target Chain>


$$$$

  SciTegic10201713182D

 30 33  0  0  0  0            999 V2000
   22.3228  -18.7582    0.0000 C   0  0
   22.3216  -19.5778    0.0000 C   0  0
   23.0297  -19.9867    0.0000 C   0  0
   23.0279  -18.3494    0.0000 C   0  0
   23.7365  -18.7546    0.0000 C   0  0
   23.7413  -19.5778    0.0000 C   0  0
   24.5257  -19.8276    0.0000 N   0  0
   25.0057  -19.1588    0.0000 C   0  0
   24.5179  -18.4957    0.0000 C   0  0
   24.7658  -17.7171    0.0000 O   0  0
   25.8229  -19.1539    0.0000 O   0  0
   24.7827  -20.6033    0.0000 C   0  0
   24.2395  -21.2138    0.0000 C   0  0
   24.4965  -21.9895    0.0000 N   0  0
   23.9561  -22.5983    0.0000 C   0  0
   24.2102  -23.3712    0.0000 C   0  0
   25.0100  -23.5407    0.0000 N   0  0
   25.5553  -22.9308    0.0000 C   0  0
   25.3009  -22.1515    0.0000 C   0  0
   25.2641  -24.3173    0.0000 N   0  0
   26.0638  -24.4856    0.0000 C   0  0
   26.6093  -23.8772    0.0000 C   0  0
   27.4081  -24.0492    0.0000 C   0  0
   27.9534  -23.4416    0.0000 C   0  0
   27.6995  -22.6639    0.0000 C   0  0
   26.8951  -22.4974    0.0000 C   0  0
   26.3533  -23.1063    0.0000 C   0  0
   27.6602  -24.8265    0.0000 Cl  0  0
   28.2442  -22.0548    0.0000 Cl  0  0
   21.6150  -18.3498    0.0000 Cl  0  0
  1  2  2  0
  2  3  1  0
  3  6  2  0
  5  4  2  0
  4  1  1  0
  5  6  1  0
  6  7  1  0
  7  8  1  0
  8  9  1  0
  9  5  1  0
  9 10  2  0
  8 11  2  0
  7 12  1  0
 12 13  1  0
 13 14  1  0
 14 15  1  0
 14 19  1  0
 15 16  1  0
 16 17  1  0
 17 18  1  0
 18 19  1  0
 17 20  1  0
 20 21  1  0
 21 22  1  0
 22 23  2  0
 23 24  1  0
 24 25  2  0
 25 26  1  0
 26 27  2  0
 27 22  1  0
 23 28  1  0
 25 29  1  0
  1 30  1  0
M  END
> <From> 
www.bindingDB.org

> <BindingDB Reactant_set_id>
50543809

> <Ligand InChI>
InChI=1S/C21H21Cl3N4O2/c22-15-3-4-19-17(11-15)20(29)21(30)28(19)10-7-26-5-8-27(9-6-26)25-13-14-1-2-16(23)12-18(14)24/h1-4,11-12,25H,5-10,13H2

> <Ligand InChI Key>
RWTAFUNYOQBYMC-UHFFFAOYSA-N

> <BindingDB MonomerID>
50208276

> <BindingDB Ligand Name>
CHEMBL3883475

> <Target Name Assigned by Curator or DataSource>
DNA gyrase subunit B

> <Target Source Organism According to Curator or DataSource>


> <Ki (nM)>


> <IC50 (nM)>
 68000

> <Kd (nM)>


> <EC50 (nM)>


> <kon (M-1-s-1)>


> <koff (s-1)>


> <pH>


> <Temp C>


> <Curation/DataSource>
ChEMBL

> <Article DOI>
10.1016/j.ejmech.2016.08.034

> <PMID>
27569197

> <PubChem AID>


> <Patent Number>


> <Authors>
Chaudhari, K; Surana, S; Jain, P; Patel, HM

> <Institution>
R. C. Patel Institute of Pharmaceutical Education and Research

> <Link to Ligand in BindingDB>
http://www.bindingdb.org/bind/chemsearch/marvin/MolStructure.jsp?monomerid=50208276

> <Link to Ligand-Target Pair in BindingDB>
http://www.bindingdb.org/jsp/dbsearch/PrimarySearch_ki.jsp?energyterm=kJ/mole&tag=pol&polymerid=50006452&target=DNA+gyrase+subunit+B&column=ki&startPg=0&Increment=50&submit=Search

> <Link to Ligand-Target Pair in BindingDB>
http://www.bindingdb.org/jsp/dbsearch/PrimarySearch_ki.jsp?energyterm=kJ/mole&tag=r21&monomerid=50208276&enzyme=DNA+gyrase+subunit+B&column=ki&startPg=0&Increment=50&submit=Search

> <Ligand HET ID in PDB>


> <PDB ID(s) for Ligand-Target Complex>


> <PubChem CID>
134130342

> <PubChem SID>
375981969

> <ChEBI ID of Ligand>


> <ChEMBL ID of Ligand>


> <DrugBank ID of Ligand>


> <IUPHAR_GRAC ID of Ligand>


> <KEGG ID of Ligand>


> <ZINC ID of Ligand>


> <Number of Protein Chains in Target (>1 implies a multichain complex)>
1

> <BindingDB Target Chain Sequence>
MAAQKNNAPKEYGADSITILEGLEAVRKRPGMYIGSTGERGLHHLIWEVVDNAVDEAMAGFATRVDVKIHADGSVEVRDDGRGIPVEMHATGMPTIDVVMTQLHAGGKFDGETYAVSGGLHGVGVSVVNALSTRLEATVLRDGYEWFQYYDRSVPGKLKQGGETKETGTTIRFWADPEIFETTDYNFETVARRLQEMAFLNKGLTIELTDERVTAEEVVDDVVKDTAEAPKTADEKAAEATGPSKVKHRVFHYPGGLVDYVKHINRTKTPIQQSIIDFDGKGPGHEVEIAMQWNAGYSESVHTFANTINTHEGGTHEEGFRAALTSVVNRYAKDKKLLKDKDPNLTGDDIREGLAAVISVKVAEPQFEGQTKTKLGNTEVKSFVQKICNEQLQHWFEANPAEAKTVVNKAVSSAQARIAARKARELVRRKSATDIGGLPGKLADCRSTDPSKSELYVVEGDSAGGSAKSGRDSMFQAILPLRGKIINVEKARIDRVLKNTEVQSIITALGTGIHDEFDISKLRYHKIVLMADADVDGQHISTLLLTLLFRFMKPLVENGHIFLAQPPLYKLKWQRSEPEFAYSDRERDGLLEAGRAAGKKINVDDGIQRYKGLGEMDAKELWETTMDPSVRVLRQVTLDDAAAADELFSILMGEDVEARRSFITRNAKDVRFLDV

> <PDB ID(s) of Target Chain>
4BAE

> <UniProt (SwissProt) Recommended Name of Target Chain>
DNA gyrase subunit B

> <UniProt (SwissProt) Entry Name of Target Chain>
GYRB_MYCSM

> <UniProt (SwissProt) Primary ID of Target Chain>
P0C559

> <UniProt (SwissProt) Secondary ID(s) of Target Chain>
P48355,Q59555

> <UniProt (SwissProt) Alternative ID(s) of Target Chain>


> <UniProt (TrEMBL) Submitted Name of Target Chain>


> <UniProt (TrEMBL) Entry Name of Target Chain>


> <UniProt (TrEMBL) Primary ID of Target Chain>


> <UniProt (TrEMBL) Secondary ID(s) of Target Chain>


> <UniProt (TrEMBL) Alternative ID(s) of Target Chain>


$$$$

  Mrv0541 04171609262D          

 28 31  0  0  0  0            999 V2000
   -1.4361    0.4117    0.0000 C   0  0  0  0  0  0  0  0  0  0  0  0
   -1.4361   -0.4117    0.0000 C   0  0  0  0  0  0  0  0  0  0  0  0
   -0.7130   -0.8235    0.0000 C   0  0  0  0  0  0  0  0  0  0  0  0
   -0.7130    0.8235    0.0000 C   0  0  0  0  0  0  0  0  0  0  0  0
    0.0000    0.4117    0.0000 C   0  0  0  0  0  0  0  0  0  0  0  0
    0.0000   -0.4117    0.0000 C   0  0  0  0  0  0  0  0  0  0  0  0
    0.7130   -0.8235    0.0000 N   0  0  0  0  0  0  0  0  0  0  0  0
    1.4261   -0.4117    0.0000 C   0  0  0  0  0  0  0  0  0  0  0  0
    1.4261    0.4117    0.0000 C   0  0  0  0  0  0  0  0  0  0  0  0
    0.7130    0.8235    0.0000 C   0  0  0  0  0  0  0  0  0  0  0  0
    0.7130    1.6489    0.0000 N   0  0  0  0  0  0  0  0  0  0  0  0
   -0.0008    2.0627    0.0000 C   0  0  0  0  0  0  0  0  0  0  0  0
    0.0006    2.8877    0.0000 C   0  0  0  0  0  0  0  0  0  0  0  0
    0.7158    3.2990    0.0000 C   0  0  0  0  0  0  0  0  0  0  0  0
    1.4296    2.8853    0.0000 C   0  0  0  0  0  0  0  0  0  0  0  0
    1.4282    2.0603    0.0000 C   0  0  0  0  0  0  0  0  0  0  0  0
    0.7188    4.1245    0.0000 N   0  0  0  0  0  0  0  0  0  0  0  0
    1.4350    4.5350    0.0000 C   0  0  0  0  0  0  0  0  0  0  0  0
    2.0054    4.2031    0.0000 S   0  0  0  0  0  0  0  0  0  0  0  0
    1.4380    5.3604    0.0000 N   0  0  0  0  0  0  0  0  0  0  0  0
    2.1541    5.7709    0.0000 C   0  0  0  0  0  0  0  0  0  0  0  0
    2.1584    6.5960    0.0000 C   0  0  0  0  0  0  0  0  0  0  0  0
    2.8750    7.0048    0.0000 C   0  0  0  0  0  0  0  0  0  0  0  0
    3.5873    6.5887    0.0000 C   0  0  0  0  0  0  0  0  0  0  0  0
    3.5831    5.7637    0.0000 C   0  0  0  0  0  0  0  0  0  0  0  0
    2.8666    5.3548    0.0000 C   0  0  0  0  0  0  0  0  0  0  0  0
    1.9977   -0.7417    0.0000 C   0  0  0  0  0  0  0  0  0  0  0  0
   -2.0067    0.7434    0.0000 F   0  0  0  0  0  0  0  0  0  0  0  0
  1  2  4  0  0  0  0
  2  3  4  0  0  0  0
  3  6  4  0  0  0  0
  5  4  4  0  0  0  0
  4  1  4  0  0  0  0
  5  6  4  0  0  0  0
  6  7  4  0  0  0  0
  7  8  4  0  0  0  0
  8  9  4  0  0  0  0
  9 10  4  0  0  0  0
 10  5  4  0  0  0  0
 11 12  1  0  0  0  0
 11 16  1  0  0  0  0
 12 13  1  0  0  0  0
 13 14  1  0  0  0  0
 14 15  1  0  0  0  0
 15 16  1  0  0  0  0
 10 11  1  0  0  0  0
 14 17  1  0  0  0  0
 17 18  1  0  0  0  0
 18 19  2  0  0  0  0
 18 20  1  0  0  0  0
 20 21  1  0  0  0  0
 21 22  4  0  0  0  0
 22 23  4  0  0  0  0
 23 24  4  0  0  0  0
 24 25  4  0  0  0  0
 25 26  4  0  0  0  0
 26 21  4  0  0  0  0
  8 27  1  0  0  0  0
  1 28  1  0  0  0  0
M  END
> <From> 
www.bindingDB.org

> <BindingDB Reactant_set_id>
50303830

> <Ligand InChI>
InChI=1S/C22H23FN4S/c1-15-13-21(19-14-16(23)7-8-20(19)24-15)27-11-9-18(10-12-27)26-22(28)25-17-5-3-2-4-6-17/h2-8,13-14,18H,9-12H2,1H3,(H2,25,26,28)

> <Ligand InChI Key>
KKYLPJRKXSSZID-UHFFFAOYSA-N

> <BindingDB MonomerID>
50067157

> <BindingDB Ligand Name>
CHEMBL3403278

> <Target Name Assigned by Curator or DataSource>
DNA gyrase subunit B

> <Target Source Organism According to Curator or DataSource>


> <Ki (nM)>


> <IC50 (nM)>
 68220

> <Kd (nM)>


> <EC50 (nM)>


> <kon (M-1-s-1)>


> <koff (s-1)>


> <pH>


> <Temp C>


> <Curation/DataSource>
ChEMBL

> <Article DOI>
10.1016/j.bmc.2015.03.004

> <PMID>
25801151

> <PubChem AID>


> <Patent Number>


> <Authors>
Medapi, B; Renuka, J; Saxena, S; Sridevi, JP; Medishetti, R; Kulkarni, P; Yogeeswari, P; Sriram, D

> <Institution>
Birla Institute of Technology&amp; Science-Pilani

> <Link to Ligand in BindingDB>
http://www.bindingdb.org/bind/chemsearch/marvin/MolStructure.jsp?monomerid=50067157

> <Link to Ligand-Target Pair in BindingDB>
http://www.bindingdb.org/jsp/dbsearch/PrimarySearch_ki.jsp?energyterm=kJ/mole&tag=pol&polymerid=50006452&target=DNA+gyrase+subunit+B&column=ki&startPg=0&Increment=50&submit=Search

> <Link to Ligand-Target Pair in BindingDB>
http://www.bindingdb.org/jsp/dbsearch/PrimarySearch_ki.jsp?energyterm=kJ/mole&tag=r21&monomerid=50067157&enzyme=DNA+gyrase+subunit+B&column=ki&startPg=0&Increment=50&submit=Search

> <Ligand HET ID in PDB>


> <PDB ID(s) for Ligand-Target Complex>


> <PubChem CID>
118729694

> <PubChem SID>
313071787

> <ChEBI ID of Ligand>


> <ChEMBL ID of Ligand>


> <DrugBank ID of Ligand>


> <IUPHAR_GRAC ID of Ligand>


> <KEGG ID of Ligand>


> <ZINC ID of Ligand>


> <Number of Protein Chains in Target (>1 implies a multichain complex)>
1

> <BindingDB Target Chain Sequence>
MAAQKNNAPKEYGADSITILEGLEAVRKRPGMYIGSTGERGLHHLIWEVVDNAVDEAMAGFATRVDVKIHADGSVEVRDDGRGIPVEMHATGMPTIDVVMTQLHAGGKFDGETYAVSGGLHGVGVSVVNALSTRLEATVLRDGYEWFQYYDRSVPGKLKQGGETKETGTTIRFWADPEIFETTDYNFETVARRLQEMAFLNKGLTIELTDERVTAEEVVDDVVKDTAEAPKTADEKAAEATGPSKVKHRVFHYPGGLVDYVKHINRTKTPIQQSIIDFDGKGPGHEVEIAMQWNAGYSESVHTFANTINTHEGGTHEEGFRAALTSVVNRYAKDKKLLKDKDPNLTGDDIREGLAAVISVKVAEPQFEGQTKTKLGNTEVKSFVQKICNEQLQHWFEANPAEAKTVVNKAVSSAQARIAARKARELVRRKSATDIGGLPGKLADCRSTDPSKSELYVVEGDSAGGSAKSGRDSMFQAILPLRGKIINVEKARIDRVLKNTEVQSIITALGTGIHDEFDISKLRYHKIVLMADADVDGQHISTLLLTLLFRFMKPLVENGHIFLAQPPLYKLKWQRSEPEFAYSDRERDGLLEAGRAAGKKINVDDGIQRYKGLGEMDAKELWETTMDPSVRVLRQVTLDDAAAADELFSILMGEDVEARRSFITRNAKDVRFLDV

> <PDB ID(s) of Target Chain>
4BAE

> <UniProt (SwissProt) Recommended Name of Target Chain>
DNA gyrase subunit B

> <UniProt (SwissProt) Entry Name of Target Chain>
GYRB_MYCSM

> <UniProt (SwissProt) Primary ID of Target Chain>
P0C559

> <UniProt (SwissProt) Secondary ID(s) of Target Chain>
P48355,Q59555

> <UniProt (SwissProt) Alternative ID(s) of Target Chain>


> <UniProt (TrEMBL) Submitted Name of Target Chain>


> <UniProt (TrEMBL) Entry Name of Target Chain>


> <UniProt (TrEMBL) Primary ID of Target Chain>


> <UniProt (TrEMBL) Secondary ID(s) of Target Chain>


> <UniProt (TrEMBL) Alternative ID(s) of Target Chain>


$$$$

  SciTegic10231716202D

 37 41  0  0  0  0            999 V2000
    2.9042  -10.3469    0.0000 C   0  0
    2.9030  -11.1665    0.0000 C   0  0
    3.6111  -11.5754    0.0000 C   0  0
    3.6093   -9.9381    0.0000 C   0  0
    4.3179  -10.3433    0.0000 C   0  0
    4.3227  -11.1665    0.0000 C   0  0
    5.1071  -11.4163    0.0000 N   0  0
    5.5871  -10.7475    0.0000 C   0  0
    5.0993  -10.0844    0.0000 C   0  0
    5.3472   -9.3058    0.0000 O   0  0
    6.4043  -10.7427    0.0000 O   0  0
    5.3641  -12.1920    0.0000 C   0  0
    4.8209  -12.8025    0.0000 C   0  0
    5.0779  -13.5782    0.0000 N   0  0
    4.5375  -14.1870    0.0000 C   0  0
    4.7916  -14.9599    0.0000 C   0  0
    5.5914  -15.1294    0.0000 N   0  0
    6.1367  -14.5195    0.0000 C   0  0
    5.8823  -13.7402    0.0000 C   0  0
    5.8455  -15.9060    0.0000 N   0  0
    6.6452  -16.0743    0.0000 C   0  0
    7.1907  -15.4659    0.0000 C   0  0
    7.9895  -15.6379    0.0000 C   0  0
    8.5348  -15.0303    0.0000 C   0  0
    8.2808  -14.2526    0.0000 C   0  0
    7.4765  -14.0861    0.0000 C   0  0
    6.9347  -14.6950    0.0000 C   0  0
    8.2416  -16.4152    0.0000 O   0  0
    9.0409  -16.5855    0.0000 C   0  0
    9.5880  -15.9785    0.0000 C   0  0
   10.3856  -16.1518    0.0000 C   0  0
   10.9325  -15.5456    0.0000 C   0  0
   10.6805  -14.7673    0.0000 C   0  0
    9.8766  -14.5986    0.0000 C   0  0
    9.3332  -15.2062    0.0000 C   0  0
    2.1963   -9.9385    0.0000 O   0  0
    2.1961   -9.1213    0.0000 C   0  0
  1  2  2  0
  2  3  1  0
  3  6  2  0
  5  4  2  0
  4  1  1  0
  5  6  1  0
  6  7  1  0
  7  8  1  0
  8  9  1  0
  9  5  1  0
  9 10  2  0
  8 11  2  0
  7 12  1  0
 12 13  1  0
 13 14  1  0
 14 15  1  0
 14 19  1  0
 15 16  1  0
 16 17  1  0
 17 18  1  0
 18 19  1  0
 17 20  1  0
 20 21  1  0
 21 22  1  0
 22 23  2  0
 23 24  1  0
 24 25  2  0
 25 26  1  0
 26 27  2  0
 27 22  1  0
 23 28  1  0
 28 29  1  0
 29 30  1  0
 30 31  2  0
 31 32  1  0
 32 33  2  0
 33 34  1  0
 34 35  2  0
 35 30  1  0
  1 36  1  0
 36 37  1  0
M  END
> <From> 
www.bindingDB.org

> <BindingDB Reactant_set_id>
50543821

> <Ligand InChI>
InChI=1S/C29H32N4O4/c1-36-24-11-12-26-25(19-24)28(34)29(35)33(26)18-15-31-13-16-32(17-14-31)30-20-23-9-5-6-10-27(23)37-21-22-7-3-2-4-8-22/h2-12,19,30H,13-18,20-21H2,1H3

> <Ligand InChI Key>
REVGCETZXJKBCB-UHFFFAOYSA-N

> <BindingDB MonomerID>
50208288

> <BindingDB Ligand Name>
CHEMBL3884713

> <Target Name Assigned by Curator or DataSource>
DNA gyrase subunit B

> <Target Source Organism According to Curator or DataSource>


> <Ki (nM)>


> <IC50 (nM)>
 69700

> <Kd (nM)>


> <EC50 (nM)>


> <kon (M-1-s-1)>


> <koff (s-1)>


> <pH>


> <Temp C>


> <Curation/DataSource>
ChEMBL

> <Article DOI>
10.1016/j.ejmech.2016.08.034

> <PMID>
27569197

> <PubChem AID>


> <Patent Number>


> <Authors>
Chaudhari, K; Surana, S; Jain, P; Patel, HM

> <Institution>
R. C. Patel Institute of Pharmaceutical Education and Research

> <Link to Ligand in BindingDB>
http://www.bindingdb.org/bind/chemsearch/marvin/MolStructure.jsp?monomerid=50208288

> <Link to Ligand-Target Pair in BindingDB>
http://www.bindingdb.org/jsp/dbsearch/PrimarySearch_ki.jsp?energyterm=kJ/mole&tag=pol&polymerid=50006452&target=DNA+gyrase+subunit+B&column=ki&startPg=0&Increment=50&submit=Search

> <Link to Ligand-Target Pair in BindingDB>
http://www.bindingdb.org/jsp/dbsearch/PrimarySearch_ki.jsp?energyterm=kJ/mole&tag=r21&monomerid=50208288&enzyme=DNA+gyrase+subunit+B&column=ki&startPg=0&Increment=50&submit=Search

> <Ligand HET ID in PDB>


> <PDB ID(s) for Ligand-Target Complex>


> <PubChem CID>
134130059

> <PubChem SID>
375981981

> <ChEBI ID of Ligand>


> <ChEMBL ID of Ligand>


> <DrugBank ID of Ligand>


> <IUPHAR_GRAC ID of Ligand>


> <KEGG ID of Ligand>


> <ZINC ID of Ligand>


> <Number of Protein Chains in Target (>1 implies a multichain complex)>
1

> <BindingDB Target Chain Sequence>
MAAQKNNAPKEYGADSITILEGLEAVRKRPGMYIGSTGERGLHHLIWEVVDNAVDEAMAGFATRVDVKIHADGSVEVRDDGRGIPVEMHATGMPTIDVVMTQLHAGGKFDGETYAVSGGLHGVGVSVVNALSTRLEATVLRDGYEWFQYYDRSVPGKLKQGGETKETGTTIRFWADPEIFETTDYNFETVARRLQEMAFLNKGLTIELTDERVTAEEVVDDVVKDTAEAPKTADEKAAEATGPSKVKHRVFHYPGGLVDYVKHINRTKTPIQQSIIDFDGKGPGHEVEIAMQWNAGYSESVHTFANTINTHEGGTHEEGFRAALTSVVNRYAKDKKLLKDKDPNLTGDDIREGLAAVISVKVAEPQFEGQTKTKLGNTEVKSFVQKICNEQLQHWFEANPAEAKTVVNKAVSSAQARIAARKARELVRRKSATDIGGLPGKLADCRSTDPSKSELYVVEGDSAGGSAKSGRDSMFQAILPLRGKIINVEKARIDRVLKNTEVQSIITALGTGIHDEFDISKLRYHKIVLMADADVDGQHISTLLLTLLFRFMKPLVENGHIFLAQPPLYKLKWQRSEPEFAYSDRERDGLLEAGRAAGKKINVDDGIQRYKGLGEMDAKELWETTMDPSVRVLRQVTLDDAAAADELFSILMGEDVEARRSFITRNAKDVRFLDV

> <PDB ID(s) of Target Chain>
4BAE

> <UniProt (SwissProt) Recommended Name of Target Chain>
DNA gyrase subunit B

> <UniProt (SwissProt) Entry Name of Target Chain>
GYRB_MYCSM

> <UniProt (SwissProt) Primary ID of Target Chain>
P0C559

> <UniProt (SwissProt) Secondary ID(s) of Target Chain>
P48355,Q59555

> <UniProt (SwissProt) Alternative ID(s) of Target Chain>


> <UniProt (TrEMBL) Submitted Name of Target Chain>


> <UniProt (TrEMBL) Entry Name of Target Chain>


> <UniProt (TrEMBL) Primary ID of Target Chain>


> <UniProt (TrEMBL) Secondary ID(s) of Target Chain>


> <UniProt (TrEMBL) Alternative ID(s) of Target Chain>


$$$$

  SciTegic10231716142D

 36 40  0  0  0  0            999 V2000
   27.3621  -19.0265    0.0000 C   0  0
   27.3610  -19.8460    0.0000 C   0  0
   28.0690  -20.2550    0.0000 C   0  0
   28.0672  -18.6176    0.0000 C   0  0
   28.7758  -19.0229    0.0000 C   0  0
   28.7807  -19.8460    0.0000 C   0  0
   29.5650  -20.0959    0.0000 N   0  0
   30.0450  -19.4270    0.0000 C   0  0
   29.5572  -18.7640    0.0000 C   0  0
   29.8052  -17.9853    0.0000 O   0  0
   30.8622  -19.4222    0.0000 O   0  0
   29.8221  -20.8716    0.0000 C   0  0
   29.2788  -21.4820    0.0000 C   0  0
   29.5359  -22.2578    0.0000 N   0  0
   28.9955  -22.8665    0.0000 C   0  0
   29.2495  -23.6395    0.0000 C   0  0
   30.0493  -23.8089    0.0000 N   0  0
   30.5947  -23.1991    0.0000 C   0  0
   30.3402  -22.4197    0.0000 C   0  0
   30.3034  -24.5856    0.0000 N   0  0
   31.1031  -24.7539    0.0000 C   0  0
   31.6487  -24.1455    0.0000 C   0  0
   32.4475  -24.3175    0.0000 C   0  0
   32.9928  -23.7099    0.0000 C   0  0
   32.7388  -22.9322    0.0000 C   0  0
   31.9344  -22.7656    0.0000 C   0  0
   31.3926  -23.3746    0.0000 C   0  0
   32.6996  -25.0948    0.0000 O   0  0
   33.4988  -25.2651    0.0000 C   0  0
   34.0459  -24.6581    0.0000 C   0  0
   34.8436  -24.8313    0.0000 C   0  0
   35.3905  -24.2251    0.0000 C   0  0
   35.1385  -23.4468    0.0000 C   0  0
   34.3346  -23.2782    0.0000 C   0  0
   33.7912  -23.8858    0.0000 C   0  0
   26.6543  -18.6181    0.0000 F   0  0
  1  2  2  0
  2  3  1  0
  3  6  2  0
  5  4  2  0
  4  1  1  0
  5  6  1  0
  6  7  1  0
  7  8  1  0
  8  9  1  0
  9  5  1  0
  9 10  2  0
  8 11  2  0
  7 12  1  0
 12 13  1  0
 13 14  1  0
 14 15  1  0
 14 19  1  0
 15 16  1  0
 16 17  1  0
 17 18  1  0
 18 19  1  0
 17 20  1  0
 20 21  1  0
 21 22  1  0
 22 23  2  0
 23 24  1  0
 24 25  2  0
 25 26  1  0
 26 27  2  0
 27 22  1  0
 23 28  1  0
 28 29  1  0
 29 30  1  0
 30 31  2  0
 31 32  1  0
 32 33  2  0
 33 34  1  0
 34 35  2  0
 35 30  1  0
  1 36  1  0
M  END
> <From> 
www.bindingDB.org

> <BindingDB Reactant_set_id>
50543806

> <Ligand InChI>
InChI=1S/C28H29FN4O3/c29-23-10-11-25-24(18-23)27(34)28(35)33(25)17-14-31-12-15-32(16-13-31)30-19-22-8-4-5-9-26(22)36-20-21-6-2-1-3-7-21/h1-11,18,30H,12-17,19-20H2

> <Ligand InChI Key>
AOOMTSGDUZKTIJ-UHFFFAOYSA-N

> <BindingDB MonomerID>
50208273

> <BindingDB Ligand Name>
CHEMBL3884510

> <Target Name Assigned by Curator or DataSource>
DNA gyrase subunit B

> <Target Source Organism According to Curator or DataSource>


> <Ki (nM)>


> <IC50 (nM)>
 70100

> <Kd (nM)>


> <EC50 (nM)>


> <kon (M-1-s-1)>


> <koff (s-1)>


> <pH>


> <Temp C>


> <Curation/DataSource>
ChEMBL

> <Article DOI>
10.1016/j.ejmech.2016.08.034

> <PMID>
27569197

> <PubChem AID>


> <Patent Number>


> <Authors>
Chaudhari, K; Surana, S; Jain, P; Patel, HM

> <Institution>
R. C. Patel Institute of Pharmaceutical Education and Research

> <Link to Ligand in BindingDB>
http://www.bindingdb.org/bind/chemsearch/marvin/MolStructure.jsp?monomerid=50208273

> <Link to Ligand-Target Pair in BindingDB>
http://www.bindingdb.org/jsp/dbsearch/PrimarySearch_ki.jsp?energyterm=kJ/mole&tag=pol&polymerid=50006452&target=DNA+gyrase+subunit+B&column=ki&startPg=0&Increment=50&submit=Search

> <Link to Ligand-Target Pair in BindingDB>
http://www.bindingdb.org/jsp/dbsearch/PrimarySearch_ki.jsp?energyterm=kJ/mole&tag=r21&monomerid=50208273&enzyme=DNA+gyrase+subunit+B&column=ki&startPg=0&Increment=50&submit=Search

> <Ligand HET ID in PDB>


> <PDB ID(s) for Ligand-Target Complex>


> <PubChem CID>
134130040

> <PubChem SID>
375981966

> <ChEBI ID of Ligand>


> <ChEMBL ID of Ligand>


> <DrugBank ID of Ligand>


> <IUPHAR_GRAC ID of Ligand>


> <KEGG ID of Ligand>


> <ZINC ID of Ligand>


> <Number of Protein Chains in Target (>1 implies a multichain complex)>
1

> <BindingDB Target Chain Sequence>
MAAQKNNAPKEYGADSITILEGLEAVRKRPGMYIGSTGERGLHHLIWEVVDNAVDEAMAGFATRVDVKIHADGSVEVRDDGRGIPVEMHATGMPTIDVVMTQLHAGGKFDGETYAVSGGLHGVGVSVVNALSTRLEATVLRDGYEWFQYYDRSVPGKLKQGGETKETGTTIRFWADPEIFETTDYNFETVARRLQEMAFLNKGLTIELTDERVTAEEVVDDVVKDTAEAPKTADEKAAEATGPSKVKHRVFHYPGGLVDYVKHINRTKTPIQQSIIDFDGKGPGHEVEIAMQWNAGYSESVHTFANTINTHEGGTHEEGFRAALTSVVNRYAKDKKLLKDKDPNLTGDDIREGLAAVISVKVAEPQFEGQTKTKLGNTEVKSFVQKICNEQLQHWFEANPAEAKTVVNKAVSSAQARIAARKARELVRRKSATDIGGLPGKLADCRSTDPSKSELYVVEGDSAGGSAKSGRDSMFQAILPLRGKIINVEKARIDRVLKNTEVQSIITALGTGIHDEFDISKLRYHKIVLMADADVDGQHISTLLLTLLFRFMKPLVENGHIFLAQPPLYKLKWQRSEPEFAYSDRERDGLLEAGRAAGKKINVDDGIQRYKGLGEMDAKELWETTMDPSVRVLRQVTLDDAAAADELFSILMGEDVEARRSFITRNAKDVRFLDV

> <PDB ID(s) of Target Chain>
4BAE

> <UniProt (SwissProt) Recommended Name of Target Chain>
DNA gyrase subunit B

> <UniProt (SwissProt) Entry Name of Target Chain>
GYRB_MYCSM

> <UniProt (SwissProt) Primary ID of Target Chain>
P0C559

> <UniProt (SwissProt) Secondary ID(s) of Target Chain>
P48355,Q59555

> <UniProt (SwissProt) Alternative ID(s) of Target Chain>


> <UniProt (TrEMBL) Submitted Name of Target Chain>


> <UniProt (TrEMBL) Entry Name of Target Chain>


> <UniProt (TrEMBL) Primary ID of Target Chain>


> <UniProt (TrEMBL) Secondary ID(s) of Target Chain>


> <UniProt (TrEMBL) Alternative ID(s) of Target Chain>


$$$$

  Mrv0541 04171609262D          

 24 26  0  0  0  0            999 V2000
    0.7145   -0.4125    0.0000 C   0  0  0  0  0  0  0  0  0  0  0  0
    0.7145    0.4125    0.0000 C   0  0  0  0  0  0  0  0  0  0  0  0
    0.0000    0.8250    0.0000 C   0  0  0  0  0  0  0  0  0  0  0  0
   -0.7145    0.4125    0.0000 C   0  0  0  0  0  0  0  0  0  0  0  0
   -0.7145   -0.4125    0.0000 C   0  0  0  0  0  0  0  0  0  0  0  0
    0.0000   -0.8250    0.0000 C   0  0  0  0  0  0  0  0  0  0  0  0
   -1.4293   -0.8252    0.0000 C   0  0  0  0  0  0  0  0  0  0  0  0
   -2.1731   -0.4848    0.0000 S   0  0  0  0  0  0  0  0  0  0  0  0
   -2.7242   -1.0988    0.0000 C   0  0  0  0  0  0  0  0  0  0  0  0
   -2.3106   -1.8126    0.0000 C   0  0  0  0  0  0  0  0  0  0  0  0
   -1.5039   -1.6398    0.0000 C   0  0  0  0  0  0  0  0  0  0  0  0
   -2.6429   -2.5666    0.0000 C   0  0  0  0  0  0  0  0  0  0  0  0
   -2.2534   -3.0994    0.0000 O   0  0  0  0  0  0  0  0  0  0  0  0
   -3.2991   -2.6378    0.0000 N   0  0  0  0  0  0  0  0  0  0  0  0
   -3.5437   -1.0123    0.0000 N   0  0  0  0  0  0  0  0  0  0  0  0
   -3.8796   -0.2582    0.0000 C   0  0  0  0  0  0  0  0  0  0  0  0
   -4.7004   -0.1715    0.0000 N   0  0  0  0  0  0  0  0  0  0  0  0
   -3.4915    0.2757    0.0000 S   0  0  0  0  0  0  0  0  0  0  0  0
   -5.0363    0.5825    0.0000 C   0  0  0  0  0  0  0  0  0  0  0  0
   -5.8566    0.6703    0.0000 C   0  0  0  0  0  0  0  0  0  0  0  0
   -6.1908    1.4246    0.0000 C   0  0  0  0  0  0  0  0  0  0  0  0
   -5.7046    2.0912    0.0000 C   0  0  0  0  0  0  0  0  0  0  0  0
   -4.8842    2.0034    0.0000 C   0  0  0  0  0  0  0  0  0  0  0  0
   -4.5501    1.2491    0.0000 C   0  0  0  0  0  0  0  0  0  0  0  0
  1  2  4  0  0  0  0
  2  3  4  0  0  0  0
  3  4  4  0  0  0  0
  4  5  4  0  0  0  0
  5  6  4  0  0  0  0
  6  1  4  0  0  0  0
  7  8  4  0  0  0  0
  8  9  4  0  0  0  0
  9 10  4  0  0  0  0
 10 11  4  0  0  0  0
 11  7  4  0  0  0  0
  5  7  1  0  0  0  0
 10 12  1  0  0  0  0
 12 13  2  0  0  0  0
 12 14  1  0  0  0  0
  9 15  1  0  0  0  0
 15 16  1  0  0  0  0
 16 17  1  0  0  0  0
 16 18  2  0  0  0  0
 17 19  1  0  0  0  0
 19 20  4  0  0  0  0
 20 21  4  0  0  0  0
 21 22  4  0  0  0  0
 22 23  4  0  0  0  0
 23 24  4  0  0  0  0
 24 19  4  0  0  0  0
M  END
> <From> 
www.bindingDB.org

> <BindingDB Reactant_set_id>
50302328

> <Ligand InChI>
InChI=1S/C18H15N3OS2/c19-16(22)14-11-15(12-7-3-1-4-8-12)24-17(14)21-18(23)20-13-9-5-2-6-10-13/h1-11H,(H2,19,22)(H2,20,21,23)

> <Ligand InChI Key>
YZNFQZMFJZGPRM-UHFFFAOYSA-N

> <BindingDB MonomerID>
50066095

> <BindingDB Ligand Name>
CHEMBL3402941

> <Target Name Assigned by Curator or DataSource>
DNA gyrase subunit B

> <Target Source Organism According to Curator or DataSource>


> <Ki (nM)>


> <IC50 (nM)>
 70330

> <Kd (nM)>


> <EC50 (nM)>


> <kon (M-1-s-1)>


> <koff (s-1)>


> <pH>


> <Temp C>
25.00

> <Curation/DataSource>
ChEMBL

> <Article DOI>
10.1016/j.bmc.2015.02.032

> <PMID>
25766629

> <PubChem AID>


> <Patent Number>


> <Authors>
Saxena, S; Samala, G; Renuka, J; Sridevi, JP; Yogeeswari, P; Sriram, D

> <Institution>
Birla Institute of Technology&amp; Science-Pilani

> <Link to Ligand in BindingDB>
http://www.bindingdb.org/bind/chemsearch/marvin/MolStructure.jsp?monomerid=50066095

> <Link to Ligand-Target Pair in BindingDB>
http://www.bindingdb.org/jsp/dbsearch/PrimarySearch_ki.jsp?energyterm=kJ/mole&tag=pol&polymerid=50006452&target=DNA+gyrase+subunit+B&column=ki&startPg=0&Increment=50&submit=Search

> <Link to Ligand-Target Pair in BindingDB>
http://www.bindingdb.org/jsp/dbsearch/PrimarySearch_ki.jsp?energyterm=kJ/mole&tag=r21&monomerid=50066095&enzyme=DNA+gyrase+subunit+B&column=ki&startPg=0&Increment=50&submit=Search

> <Ligand HET ID in PDB>


> <PDB ID(s) for Ligand-Target Complex>


> <PubChem CID>
118729466

> <PubChem SID>
313045052

> <ChEBI ID of Ligand>


> <ChEMBL ID of Ligand>


> <DrugBank ID of Ligand>


> <IUPHAR_GRAC ID of Ligand>


> <KEGG ID of Ligand>


> <ZINC ID of Ligand>


> <Number of Protein Chains in Target (>1 implies a multichain complex)>
1

> <BindingDB Target Chain Sequence>
MAAQKNNAPKEYGADSITILEGLEAVRKRPGMYIGSTGERGLHHLIWEVVDNAVDEAMAGFATRVDVKIHADGSVEVRDDGRGIPVEMHATGMPTIDVVMTQLHAGGKFDGETYAVSGGLHGVGVSVVNALSTRLEATVLRDGYEWFQYYDRSVPGKLKQGGETKETGTTIRFWADPEIFETTDYNFETVARRLQEMAFLNKGLTIELTDERVTAEEVVDDVVKDTAEAPKTADEKAAEATGPSKVKHRVFHYPGGLVDYVKHINRTKTPIQQSIIDFDGKGPGHEVEIAMQWNAGYSESVHTFANTINTHEGGTHEEGFRAALTSVVNRYAKDKKLLKDKDPNLTGDDIREGLAAVISVKVAEPQFEGQTKTKLGNTEVKSFVQKICNEQLQHWFEANPAEAKTVVNKAVSSAQARIAARKARELVRRKSATDIGGLPGKLADCRSTDPSKSELYVVEGDSAGGSAKSGRDSMFQAILPLRGKIINVEKARIDRVLKNTEVQSIITALGTGIHDEFDISKLRYHKIVLMADADVDGQHISTLLLTLLFRFMKPLVENGHIFLAQPPLYKLKWQRSEPEFAYSDRERDGLLEAGRAAGKKINVDDGIQRYKGLGEMDAKELWETTMDPSVRVLRQVTLDDAAAADELFSILMGEDVEARRSFITRNAKDVRFLDV

> <PDB ID(s) of Target Chain>
4BAE

> <UniProt (SwissProt) Recommended Name of Target Chain>
DNA gyrase subunit B

> <UniProt (SwissProt) Entry Name of Target Chain>
GYRB_MYCSM

> <UniProt (SwissProt) Primary ID of Target Chain>
P0C559

> <UniProt (SwissProt) Secondary ID(s) of Target Chain>
P48355,Q59555

> <UniProt (SwissProt) Alternative ID(s) of Target Chain>


> <UniProt (TrEMBL) Submitted Name of Target Chain>


> <UniProt (TrEMBL) Entry Name of Target Chain>


> <UniProt (TrEMBL) Primary ID of Target Chain>


> <UniProt (TrEMBL) Secondary ID(s) of Target Chain>


> <UniProt (TrEMBL) Alternative ID(s) of Target Chain>


$$$$

  Mrv0541 04171609262D          

 25 27  0  0  0  0            999 V2000
    0.7145   -0.4125    0.0000 C   0  0  0  0  0  0  0  0  0  0  0  0
    0.7145    0.4125    0.0000 C   0  0  0  0  0  0  0  0  0  0  0  0
    0.0000    0.8250    0.0000 C   0  0  0  0  0  0  0  0  0  0  0  0
   -0.7145    0.4125    0.0000 C   0  0  0  0  0  0  0  0  0  0  0  0
   -0.7145   -0.4125    0.0000 C   0  0  0  0  0  0  0  0  0  0  0  0
    0.0000   -0.8250    0.0000 C   0  0  0  0  0  0  0  0  0  0  0  0
   -1.4293   -0.8252    0.0000 C   0  0  0  0  0  0  0  0  0  0  0  0
   -2.1731   -0.4848    0.0000 S   0  0  0  0  0  0  0  0  0  0  0  0
   -2.7242   -1.0988    0.0000 C   0  0  0  0  0  0  0  0  0  0  0  0
   -2.3106   -1.8127    0.0000 C   0  0  0  0  0  0  0  0  0  0  0  0
   -1.5039   -1.6398    0.0000 C   0  0  0  0  0  0  0  0  0  0  0  0
   -2.6429   -2.5667    0.0000 C   0  0  0  0  0  0  0  0  0  0  0  0
   -2.2534   -3.0994    0.0000 O   0  0  0  0  0  0  0  0  0  0  0  0
   -3.2991   -2.6378    0.0000 N   0  0  0  0  0  0  0  0  0  0  0  0
   -3.5437   -1.0123    0.0000 N   0  0  0  0  0  0  0  0  0  0  0  0
   -3.8796   -0.2582    0.0000 C   0  0  0  0  0  0  0  0  0  0  0  0
   -4.7005   -0.1715    0.0000 N   0  0  0  0  0  0  0  0  0  0  0  0
   -3.4915    0.2757    0.0000 S   0  0  0  0  0  0  0  0  0  0  0  0
   -5.0363    0.5825    0.0000 C   0  0  0  0  0  0  0  0  0  0  0  0
   -5.8566    0.6703    0.0000 C   0  0  0  0  0  0  0  0  0  0  0  0
   -6.1908    1.4246    0.0000 C   0  0  0  0  0  0  0  0  0  0  0  0
   -5.7046    2.0912    0.0000 C   0  0  0  0  0  0  0  0  0  0  0  0
   -4.8843    2.0034    0.0000 C   0  0  0  0  0  0  0  0  0  0  0  0
   -4.5501    1.2491    0.0000 C   0  0  0  0  0  0  0  0  0  0  0  0
   -5.9719    2.6946    0.0000 Cl  0  0  0  0  0  0  0  0  0  0  0  0
  1  2  4  0  0  0  0
  2  3  4  0  0  0  0
  3  4  4  0  0  0  0
  4  5  4  0  0  0  0
  5  6  4  0  0  0  0
  6  1  4  0  0  0  0
  7  8  4  0  0  0  0
  8  9  4  0  0  0  0
  9 10  4  0  0  0  0
 10 11  4  0  0  0  0
 11  7  4  0  0  0  0
  5  7  1  0  0  0  0
 10 12  1  0  0  0  0
 12 13  2  0  0  0  0
 12 14  1  0  0  0  0
  9 15  1  0  0  0  0
 15 16  1  0  0  0  0
 16 17  1  0  0  0  0
 16 18  2  0  0  0  0
 17 19  1  0  0  0  0
 19 20  4  0  0  0  0
 20 21  4  0  0  0  0
 21 22  4  0  0  0  0
 22 23  4  0  0  0  0
 23 24  4  0  0  0  0
 24 19  4  0  0  0  0
 22 25  1  0  0  0  0
M  END
> <From> 
www.bindingDB.org

> <BindingDB Reactant_set_id>
50302325

> <Ligand InChI>
InChI=1S/C18H14ClN3OS2/c19-12-6-8-13(9-7-12)21-18(24)22-17-14(16(20)23)10-15(25-17)11-4-2-1-3-5-11/h1-10H,(H2,20,23)(H2,21,22,24)

> <Ligand InChI Key>
QTPIDEDWRZVQKY-UHFFFAOYSA-N

> <BindingDB MonomerID>
50066091

> <BindingDB Ligand Name>
CHEMBL3402938

> <Target Name Assigned by Curator or DataSource>
DNA gyrase subunit B

> <Target Source Organism According to Curator or DataSource>


> <Ki (nM)>


> <IC50 (nM)>
 71420

> <Kd (nM)>


> <EC50 (nM)>


> <kon (M-1-s-1)>


> <koff (s-1)>


> <pH>


> <Temp C>
25.00

> <Curation/DataSource>
ChEMBL

> <Article DOI>
10.1016/j.bmc.2015.02.032

> <PMID>
25766629

> <PubChem AID>


> <Patent Number>


> <Authors>
Saxena, S; Samala, G; Renuka, J; Sridevi, JP; Yogeeswari, P; Sriram, D

> <Institution>
Birla Institute of Technology&amp; Science-Pilani

> <Link to Ligand in BindingDB>
http://www.bindingdb.org/bind/chemsearch/marvin/MolStructure.jsp?monomerid=50066091

> <Link to Ligand-Target Pair in BindingDB>
http://www.bindingdb.org/jsp/dbsearch/PrimarySearch_ki.jsp?energyterm=kJ/mole&tag=pol&polymerid=50006452&target=DNA+gyrase+subunit+B&column=ki&startPg=0&Increment=50&submit=Search

> <Link to Ligand-Target Pair in BindingDB>
http://www.bindingdb.org/jsp/dbsearch/PrimarySearch_ki.jsp?energyterm=kJ/mole&tag=r21&monomerid=50066091&enzyme=DNA+gyrase+subunit+B&column=ki&startPg=0&Increment=50&submit=Search

> <Ligand HET ID in PDB>


> <PDB ID(s) for Ligand-Target Complex>


> <PubChem CID>
118729463

> <PubChem SID>
313071616

> <ChEBI ID of Ligand>


> <ChEMBL ID of Ligand>


> <DrugBank ID of Ligand>


> <IUPHAR_GRAC ID of Ligand>


> <KEGG ID of Ligand>


> <ZINC ID of Ligand>


> <Number of Protein Chains in Target (>1 implies a multichain complex)>
1

> <BindingDB Target Chain Sequence>
MAAQKNNAPKEYGADSITILEGLEAVRKRPGMYIGSTGERGLHHLIWEVVDNAVDEAMAGFATRVDVKIHADGSVEVRDDGRGIPVEMHATGMPTIDVVMTQLHAGGKFDGETYAVSGGLHGVGVSVVNALSTRLEATVLRDGYEWFQYYDRSVPGKLKQGGETKETGTTIRFWADPEIFETTDYNFETVARRLQEMAFLNKGLTIELTDERVTAEEVVDDVVKDTAEAPKTADEKAAEATGPSKVKHRVFHYPGGLVDYVKHINRTKTPIQQSIIDFDGKGPGHEVEIAMQWNAGYSESVHTFANTINTHEGGTHEEGFRAALTSVVNRYAKDKKLLKDKDPNLTGDDIREGLAAVISVKVAEPQFEGQTKTKLGNTEVKSFVQKICNEQLQHWFEANPAEAKTVVNKAVSSAQARIAARKARELVRRKSATDIGGLPGKLADCRSTDPSKSELYVVEGDSAGGSAKSGRDSMFQAILPLRGKIINVEKARIDRVLKNTEVQSIITALGTGIHDEFDISKLRYHKIVLMADADVDGQHISTLLLTLLFRFMKPLVENGHIFLAQPPLYKLKWQRSEPEFAYSDRERDGLLEAGRAAGKKINVDDGIQRYKGLGEMDAKELWETTMDPSVRVLRQVTLDDAAAADELFSILMGEDVEARRSFITRNAKDVRFLDV

> <PDB ID(s) of Target Chain>
4BAE

> <UniProt (SwissProt) Recommended Name of Target Chain>
DNA gyrase subunit B

> <UniProt (SwissProt) Entry Name of Target Chain>
GYRB_MYCSM

> <UniProt (SwissProt) Primary ID of Target Chain>
P0C559

> <UniProt (SwissProt) Secondary ID(s) of Target Chain>
P48355,Q59555

> <UniProt (SwissProt) Alternative ID(s) of Target Chain>


> <UniProt (TrEMBL) Submitted Name of Target Chain>


> <UniProt (TrEMBL) Entry Name of Target Chain>


> <UniProt (TrEMBL) Primary ID of Target Chain>


> <UniProt (TrEMBL) Secondary ID(s) of Target Chain>


> <UniProt (TrEMBL) Alternative ID(s) of Target Chain>


$$$$

  SciTegic10201713112D

 31 34  0  0  0  0            999 V2000
   21.5180   -1.8655    0.0000 C   0  0
   21.5168   -2.6850    0.0000 C   0  0
   22.2249   -3.0940    0.0000 C   0  0
   22.2231   -1.4566    0.0000 C   0  0
   22.9317   -1.8619    0.0000 C   0  0
   22.9365   -2.6850    0.0000 C   0  0
   23.7209   -2.9349    0.0000 N   0  0
   24.2009   -2.2660    0.0000 C   0  0
   23.7131   -1.6030    0.0000 C   0  0
   23.9610   -0.8243    0.0000 O   0  0
   25.0181   -2.2612    0.0000 O   0  0
   23.9779   -3.7106    0.0000 C   0  0
   23.4347   -4.3210    0.0000 C   0  0
   23.6917   -5.0967    0.0000 N   0  0
   23.1513   -5.7055    0.0000 C   0  0
   23.4054   -6.4785    0.0000 C   0  0
   24.2052   -6.6479    0.0000 N   0  0
   24.7505   -6.0380    0.0000 C   0  0
   24.4961   -5.2587    0.0000 C   0  0
   24.4593   -7.4246    0.0000 N   0  0
   25.2590   -7.5929    0.0000 C   0  0
   25.8045   -6.9844    0.0000 C   0  0
   26.6033   -7.1564    0.0000 C   0  0
   27.1486   -6.5488    0.0000 C   0  0
   26.8946   -5.7712    0.0000 C   0  0
   26.0903   -5.6046    0.0000 C   0  0
   25.5485   -6.2136    0.0000 C   0  0
   26.8554   -7.9338    0.0000 Cl  0  0
   27.9482   -6.7175    0.0000 Cl  0  0
   20.8101   -1.4570    0.0000 O   0  0
   20.8099   -0.6399    0.0000 C   0  0
  1  2  2  0
  2  3  1  0
  3  6  2  0
  5  4  2  0
  4  1  1  0
  5  6  1  0
  6  7  1  0
  7  8  1  0
  8  9  1  0
  9  5  1  0
  9 10  2  0
  8 11  2  0
  7 12  1  0
 12 13  1  0
 13 14  1  0
 14 15  1  0
 14 19  1  0
 15 16  1  0
 16 17  1  0
 17 18  1  0
 18 19  1  0
 17 20  1  0
 20 21  1  0
 21 22  1  0
 22 23  2  0
 23 24  1  0
 24 25  2  0
 25 26  1  0
 26 27  2  0
 27 22  1  0
 23 28  1  0
 24 29  1  0
  1 30  1  0
 30 31  1  0
M  END
> <From> 
www.bindingDB.org

> <BindingDB Reactant_set_id>
50543812

> <Ligand InChI>
InChI=1S/C22H24Cl2N4O3/c1-31-16-5-6-19-17(13-16)21(29)22(30)28(19)12-9-26-7-10-27(11-8-26)25-14-15-3-2-4-18(23)20(15)24/h2-6,13,25H,7-12,14H2,1H3

> <Ligand InChI Key>
RLTHVNZWWCSJRQ-UHFFFAOYSA-N

> <BindingDB MonomerID>
50208279

> <BindingDB Ligand Name>
CHEMBL3883348

> <Target Name Assigned by Curator or DataSource>
DNA gyrase subunit B

> <Target Source Organism According to Curator or DataSource>


> <Ki (nM)>


> <IC50 (nM)>
 73000

> <Kd (nM)>


> <EC50 (nM)>


> <kon (M-1-s-1)>


> <koff (s-1)>


> <pH>


> <Temp C>


> <Curation/DataSource>
ChEMBL

> <Article DOI>
10.1016/j.ejmech.2016.08.034

> <PMID>
27569197

> <PubChem AID>


> <Patent Number>


> <Authors>
Chaudhari, K; Surana, S; Jain, P; Patel, HM

> <Institution>
R. C. Patel Institute of Pharmaceutical Education and Research

> <Link to Ligand in BindingDB>
http://www.bindingdb.org/bind/chemsearch/marvin/MolStructure.jsp?monomerid=50208279

> <Link to Ligand-Target Pair in BindingDB>
http://www.bindingdb.org/jsp/dbsearch/PrimarySearch_ki.jsp?energyterm=kJ/mole&tag=pol&polymerid=50006452&target=DNA+gyrase+subunit+B&column=ki&startPg=0&Increment=50&submit=Search

> <Link to Ligand-Target Pair in BindingDB>
http://www.bindingdb.org/jsp/dbsearch/PrimarySearch_ki.jsp?energyterm=kJ/mole&tag=r21&monomerid=50208279&enzyme=DNA+gyrase+subunit+B&column=ki&startPg=0&Increment=50&submit=Search

> <Ligand HET ID in PDB>


> <PDB ID(s) for Ligand-Target Complex>


> <PubChem CID>
134129974

> <PubChem SID>
375981972

> <ChEBI ID of Ligand>


> <ChEMBL ID of Ligand>


> <DrugBank ID of Ligand>


> <IUPHAR_GRAC ID of Ligand>


> <KEGG ID of Ligand>


> <ZINC ID of Ligand>


> <Number of Protein Chains in Target (>1 implies a multichain complex)>
1

> <BindingDB Target Chain Sequence>
MAAQKNNAPKEYGADSITILEGLEAVRKRPGMYIGSTGERGLHHLIWEVVDNAVDEAMAGFATRVDVKIHADGSVEVRDDGRGIPVEMHATGMPTIDVVMTQLHAGGKFDGETYAVSGGLHGVGVSVVNALSTRLEATVLRDGYEWFQYYDRSVPGKLKQGGETKETGTTIRFWADPEIFETTDYNFETVARRLQEMAFLNKGLTIELTDERVTAEEVVDDVVKDTAEAPKTADEKAAEATGPSKVKHRVFHYPGGLVDYVKHINRTKTPIQQSIIDFDGKGPGHEVEIAMQWNAGYSESVHTFANTINTHEGGTHEEGFRAALTSVVNRYAKDKKLLKDKDPNLTGDDIREGLAAVISVKVAEPQFEGQTKTKLGNTEVKSFVQKICNEQLQHWFEANPAEAKTVVNKAVSSAQARIAARKARELVRRKSATDIGGLPGKLADCRSTDPSKSELYVVEGDSAGGSAKSGRDSMFQAILPLRGKIINVEKARIDRVLKNTEVQSIITALGTGIHDEFDISKLRYHKIVLMADADVDGQHISTLLLTLLFRFMKPLVENGHIFLAQPPLYKLKWQRSEPEFAYSDRERDGLLEAGRAAGKKINVDDGIQRYKGLGEMDAKELWETTMDPSVRVLRQVTLDDAAAADELFSILMGEDVEARRSFITRNAKDVRFLDV

> <PDB ID(s) of Target Chain>
4BAE

> <UniProt (SwissProt) Recommended Name of Target Chain>
DNA gyrase subunit B

> <UniProt (SwissProt) Entry Name of Target Chain>
GYRB_MYCSM

> <UniProt (SwissProt) Primary ID of Target Chain>
P0C559

> <UniProt (SwissProt) Secondary ID(s) of Target Chain>
P48355,Q59555

> <UniProt (SwissProt) Alternative ID(s) of Target Chain>


> <UniProt (TrEMBL) Submitted Name of Target Chain>


> <UniProt (TrEMBL) Entry Name of Target Chain>


> <UniProt (TrEMBL) Primary ID of Target Chain>


> <UniProt (TrEMBL) Secondary ID(s) of Target Chain>


> <UniProt (TrEMBL) Alternative ID(s) of Target Chain>


$$$$

  SciTegic12221707012D

 27 30  0  0  0  0            999 V2000
    9.6288   -3.7228    0.0000 C   0  0
    8.9257   -4.1346    0.0000 C   0  0
    9.6251   -2.9057    0.0000 O   0  0
   10.3397   -4.1324    0.0000 N   0  0
   11.0470   -3.7206    0.0000 C   0  0
   11.0433   -2.9034    0.0000 C   0  0
   11.7505   -2.4916    0.0000 C   0  0
   11.7468   -1.6744    0.0000 C   0  0
   11.0400   -1.2690    0.0000 C   0  0
   10.3328   -1.6808    0.0000 C   0  0
   10.3323   -2.4980    0.0000 N   0  0
    8.9253   -4.9518    0.0000 N   0  0
    8.2180   -5.3636    0.0000 C   0  0
    8.2217   -6.1808    0.0000 C   0  0
    8.9327   -6.5862    0.0000 N   0  0
    9.6358   -6.1744    0.0000 C   0  0
    9.6362   -5.3572    0.0000 C   0  0
    8.9396   -9.0378    0.0000 N   0  0
    9.6428   -8.6260    0.0000 C   0  0
    9.6432   -7.8088    0.0000 C   0  0
    8.9322   -7.4034    0.0000 C   0  0
    8.2291   -7.8152    0.0000 C   0  0
    7.5182   -7.4098    0.0000 C   0  0
    6.8110   -7.8175    0.0000 C   0  0
    6.8147   -8.6346    0.0000 C   0  0
    7.5215   -9.0442    0.0000 C   0  0
    8.2287   -8.6324    0.0000 C   0  0
  1  2  1  0
  1  3  2  0
  1  4  1  0
  6  7  1  0
  7  8  2  0
  8  9  1  0
  9 10  2  0
 10 11  1  0
  6 11  2  0
  5  6  1  0
  4  5  1  0
 12 13  1  0
 13 14  1  0
 14 15  1  0
 15 16  1  0
 16 17  1  0
 12 17  1  0
 18 19  2  0
 19 20  1  0
 20 21  2  0
 21 22  1  0
 22 23  2  0
 23 24  1  0
 24 25  2  0
 25 26  1  0
 26 27  2  0
 18 27  1  0
 22 27  1  0
 15 21  1  0
  2 12  1  0
M  END
> <From> 
www.bindingDB.org

> <BindingDB Reactant_set_id>
50528047

> <Ligand InChI>
InChI=1S/C21H23N5O/c27-21(24-15-17-5-3-4-9-22-17)16-25-11-13-26(14-12-25)20-8-10-23-19-7-2-1-6-18(19)20/h1-10H,11-16H2,(H,24,27)

> <Ligand InChI Key>
OLUMIRZFIYHPHU-UHFFFAOYSA-N

> <BindingDB MonomerID>
50202001

> <BindingDB Ligand Name>
CHEMBL3948859

> <Target Name Assigned by Curator or DataSource>
DNA gyrase subunit B

> <Target Source Organism According to Curator or DataSource>


> <Ki (nM)>


> <IC50 (nM)>
>75000

> <Kd (nM)>


> <EC50 (nM)>


> <kon (M-1-s-1)>


> <koff (s-1)>


> <pH>


> <Temp C>


> <Curation/DataSource>
ChEMBL

> <Article DOI>
10.1016/j.ejmech.2016.06.042

> <PMID>
27371925

> <PubChem AID>


> <Patent Number>


> <Authors>
Jeankumar, VU; Reshma, RS; Vats, R; Janupally, R; Saxena, S; Yogeeswari, P; Sriram, D

> <Institution>
Birla Institute of Technology&amp; Science-Pilani

> <Link to Ligand in BindingDB>
http://www.bindingdb.org/bind/chemsearch/marvin/MolStructure.jsp?monomerid=50202001

> <Link to Ligand-Target Pair in BindingDB>
http://www.bindingdb.org/jsp/dbsearch/PrimarySearch_ki.jsp?energyterm=kJ/mole&tag=pol&polymerid=50006452&target=DNA+gyrase+subunit+B&column=ki&startPg=0&Increment=50&submit=Search

> <Link to Ligand-Target Pair in BindingDB>
http://www.bindingdb.org/jsp/dbsearch/PrimarySearch_ki.jsp?energyterm=kJ/mole&tag=r21&monomerid=50202001&enzyme=DNA+gyrase+subunit+B&column=ki&startPg=0&Increment=50&submit=Search

> <Ligand HET ID in PDB>


> <PDB ID(s) for Ligand-Target Complex>


> <PubChem CID>
134147954

> <PubChem SID>
375979561

> <ChEBI ID of Ligand>


> <ChEMBL ID of Ligand>


> <DrugBank ID of Ligand>


> <IUPHAR_GRAC ID of Ligand>


> <KEGG ID of Ligand>


> <ZINC ID of Ligand>


> <Number of Protein Chains in Target (>1 implies a multichain complex)>
1

> <BindingDB Target Chain Sequence>
MAAQKNNAPKEYGADSITILEGLEAVRKRPGMYIGSTGERGLHHLIWEVVDNAVDEAMAGFATRVDVKIHADGSVEVRDDGRGIPVEMHATGMPTIDVVMTQLHAGGKFDGETYAVSGGLHGVGVSVVNALSTRLEATVLRDGYEWFQYYDRSVPGKLKQGGETKETGTTIRFWADPEIFETTDYNFETVARRLQEMAFLNKGLTIELTDERVTAEEVVDDVVKDTAEAPKTADEKAAEATGPSKVKHRVFHYPGGLVDYVKHINRTKTPIQQSIIDFDGKGPGHEVEIAMQWNAGYSESVHTFANTINTHEGGTHEEGFRAALTSVVNRYAKDKKLLKDKDPNLTGDDIREGLAAVISVKVAEPQFEGQTKTKLGNTEVKSFVQKICNEQLQHWFEANPAEAKTVVNKAVSSAQARIAARKARELVRRKSATDIGGLPGKLADCRSTDPSKSELYVVEGDSAGGSAKSGRDSMFQAILPLRGKIINVEKARIDRVLKNTEVQSIITALGTGIHDEFDISKLRYHKIVLMADADVDGQHISTLLLTLLFRFMKPLVENGHIFLAQPPLYKLKWQRSEPEFAYSDRERDGLLEAGRAAGKKINVDDGIQRYKGLGEMDAKELWETTMDPSVRVLRQVTLDDAAAADELFSILMGEDVEARRSFITRNAKDVRFLDV

> <PDB ID(s) of Target Chain>
4BAE

> <UniProt (SwissProt) Recommended Name of Target Chain>
DNA gyrase subunit B

> <UniProt (SwissProt) Entry Name of Target Chain>
GYRB_MYCSM

> <UniProt (SwissProt) Primary ID of Target Chain>
P0C559

> <UniProt (SwissProt) Secondary ID(s) of Target Chain>
P48355,Q59555

> <UniProt (SwissProt) Alternative ID(s) of Target Chain>


> <UniProt (TrEMBL) Submitted Name of Target Chain>


> <UniProt (TrEMBL) Entry Name of Target Chain>


> <UniProt (TrEMBL) Primary ID of Target Chain>


> <UniProt (TrEMBL) Secondary ID(s) of Target Chain>


> <UniProt (TrEMBL) Alternative ID(s) of Target Chain>


$$$$

  SciTegic12221703442D

 31 34  0  0  0  0            999 V2000
   15.5638   -3.1038    0.0000 C   0  0
   14.8607   -3.5156    0.0000 C   0  0
   15.5601   -2.2866    0.0000 O   0  0
   16.2747   -3.5133    0.0000 N   0  0
   16.9819   -3.1015    0.0000 C   0  0
   16.9782   -2.2843    0.0000 C   0  0
   17.6855   -1.8725    0.0000 C   0  0
   17.6818   -1.0553    0.0000 C   0  0
   16.9750   -0.6499    0.0000 C   0  0
   16.2677   -1.0617    0.0000 C   0  0
   16.2673   -1.8789    0.0000 N   0  0
   14.8602   -4.3327    0.0000 N   0  0
   14.1530   -4.7445    0.0000 C   0  0
   14.1567   -5.5617    0.0000 C   0  0
   14.8676   -5.9671    0.0000 N   0  0
   15.5707   -5.5553    0.0000 C   0  0
   15.5712   -4.7381    0.0000 C   0  0
   14.8746   -8.4187    0.0000 N   0  0
   15.5777   -8.0069    0.0000 C   0  0
   15.5781   -7.1897    0.0000 C   0  0
   14.8672   -6.7843    0.0000 C   0  0
   14.1641   -7.1961    0.0000 C   0  0
   13.4532   -6.7907    0.0000 C   0  0
   12.7459   -7.1984    0.0000 C   0  0
   12.7496   -8.0156    0.0000 C   0  0
   13.4564   -8.4251    0.0000 C   0  0
   14.1637   -8.0133    0.0000 C   0  0
   12.0429   -8.4293    0.0000 C   0  0
   11.3995   -8.8021    0.0000 F   0  0
   11.2442   -8.1270    0.0000 F   0  0
   11.9079   -9.2726    0.0000 F   0  0
  1  2  1  0
  1  3  2  0
  1  4  1  0
  6  7  1  0
  7  8  2  0
  8  9  1  0
  9 10  2  0
 10 11  1  0
  6 11  2  0
  5  6  1  0
  4  5  1  0
 12 13  1  0
 13 14  1  0
 14 15  1  0
 15 16  1  0
 16 17  1  0
 12 17  1  0
 18 19  2  0
 19 20  1  0
 20 21  2  0
 21 22  1  0
 22 23  2  0
 23 24  1  0
 24 25  2  0
 25 26  1  0
 26 27  2  0
 18 27  1  0
 22 27  1  0
 15 21  1  0
  2 12  1  0
 28 29  1  0
 28 30  1  0
 28 31  1  0
 25 28  1  0
M  END
> <From> 
www.bindingDB.org

> <BindingDB Reactant_set_id>
50528084

> <Ligand InChI>
InChI=1S/C22H22F3N5O/c23-22(24,25)16-4-5-18-19(13-16)27-8-6-20(18)30-11-9-29(10-12-30)15-21(31)28-14-17-3-1-2-7-26-17/h1-8,13H,9-12,14-15H2,(H,28,31)

> <Ligand InChI Key>
NRSBXZRFOUOKKW-UHFFFAOYSA-N

> <BindingDB MonomerID>
50202228

> <BindingDB Ligand Name>
CHEMBL3943840

> <Target Name Assigned by Curator or DataSource>
DNA gyrase subunit B

> <Target Source Organism According to Curator or DataSource>


> <Ki (nM)>


> <IC50 (nM)>
>75000

> <Kd (nM)>


> <EC50 (nM)>


> <kon (M-1-s-1)>


> <koff (s-1)>


> <pH>


> <Temp C>


> <Curation/DataSource>
ChEMBL

> <Article DOI>
10.1016/j.ejmech.2016.06.042

> <PMID>
27371925

> <PubChem AID>


> <Patent Number>


> <Authors>
Jeankumar, VU; Reshma, RS; Vats, R; Janupally, R; Saxena, S; Yogeeswari, P; Sriram, D

> <Institution>
Birla Institute of Technology&amp; Science-Pilani

> <Link to Ligand in BindingDB>
http://www.bindingdb.org/bind/chemsearch/marvin/MolStructure.jsp?monomerid=50202228

> <Link to Ligand-Target Pair in BindingDB>
http://www.bindingdb.org/jsp/dbsearch/PrimarySearch_ki.jsp?energyterm=kJ/mole&tag=pol&polymerid=50006452&target=DNA+gyrase+subunit+B&column=ki&startPg=0&Increment=50&submit=Search

> <Link to Ligand-Target Pair in BindingDB>
http://www.bindingdb.org/jsp/dbsearch/PrimarySearch_ki.jsp?energyterm=kJ/mole&tag=r21&monomerid=50202228&enzyme=DNA+gyrase+subunit+B&column=ki&startPg=0&Increment=50&submit=Search

> <Ligand HET ID in PDB>


> <PDB ID(s) for Ligand-Target Complex>


> <PubChem CID>
134145668

> <PubChem SID>
375979596

> <ChEBI ID of Ligand>


> <ChEMBL ID of Ligand>


> <DrugBank ID of Ligand>


> <IUPHAR_GRAC ID of Ligand>


> <KEGG ID of Ligand>


> <ZINC ID of Ligand>


> <Number of Protein Chains in Target (>1 implies a multichain complex)>
1

> <BindingDB Target Chain Sequence>
MAAQKNNAPKEYGADSITILEGLEAVRKRPGMYIGSTGERGLHHLIWEVVDNAVDEAMAGFATRVDVKIHADGSVEVRDDGRGIPVEMHATGMPTIDVVMTQLHAGGKFDGETYAVSGGLHGVGVSVVNALSTRLEATVLRDGYEWFQYYDRSVPGKLKQGGETKETGTTIRFWADPEIFETTDYNFETVARRLQEMAFLNKGLTIELTDERVTAEEVVDDVVKDTAEAPKTADEKAAEATGPSKVKHRVFHYPGGLVDYVKHINRTKTPIQQSIIDFDGKGPGHEVEIAMQWNAGYSESVHTFANTINTHEGGTHEEGFRAALTSVVNRYAKDKKLLKDKDPNLTGDDIREGLAAVISVKVAEPQFEGQTKTKLGNTEVKSFVQKICNEQLQHWFEANPAEAKTVVNKAVSSAQARIAARKARELVRRKSATDIGGLPGKLADCRSTDPSKSELYVVEGDSAGGSAKSGRDSMFQAILPLRGKIINVEKARIDRVLKNTEVQSIITALGTGIHDEFDISKLRYHKIVLMADADVDGQHISTLLLTLLFRFMKPLVENGHIFLAQPPLYKLKWQRSEPEFAYSDRERDGLLEAGRAAGKKINVDDGIQRYKGLGEMDAKELWETTMDPSVRVLRQVTLDDAAAADELFSILMGEDVEARRSFITRNAKDVRFLDV

> <PDB ID(s) of Target Chain>
4BAE

> <UniProt (SwissProt) Recommended Name of Target Chain>
DNA gyrase subunit B

> <UniProt (SwissProt) Entry Name of Target Chain>
GYRB_MYCSM

> <UniProt (SwissProt) Primary ID of Target Chain>
P0C559

> <UniProt (SwissProt) Secondary ID(s) of Target Chain>
P48355,Q59555

> <UniProt (SwissProt) Alternative ID(s) of Target Chain>


> <UniProt (TrEMBL) Submitted Name of Target Chain>


> <UniProt (TrEMBL) Entry Name of Target Chain>


> <UniProt (TrEMBL) Primary ID of Target Chain>


> <UniProt (TrEMBL) Secondary ID(s) of Target Chain>


> <UniProt (TrEMBL) Alternative ID(s) of Target Chain>


$$$$

  SciTegic10231713552D

 30 33  0  0  0  0            999 V2000
   11.4599  -18.9109    0.0000 C   0  0
   11.4588  -19.7305    0.0000 C   0  0
   12.1668  -20.1394    0.0000 C   0  0
   12.1650  -18.5021    0.0000 C   0  0
   12.8736  -18.9073    0.0000 C   0  0
   12.8785  -19.7305    0.0000 C   0  0
   13.6628  -19.9803    0.0000 N   0  0
   14.1428  -19.3115    0.0000 C   0  0
   13.6550  -18.6484    0.0000 C   0  0
   13.9030  -17.8698    0.0000 O   0  0
   14.9600  -19.3066    0.0000 O   0  0
   13.9199  -20.7560    0.0000 C   0  0
   13.3766  -21.3665    0.0000 C   0  0
   13.6337  -22.1422    0.0000 N   0  0
   13.0932  -22.7510    0.0000 C   0  0
   13.3473  -23.5239    0.0000 C   0  0
   14.1471  -23.6934    0.0000 N   0  0
   14.6925  -23.0835    0.0000 C   0  0
   14.4380  -22.3042    0.0000 C   0  0
   14.4012  -24.4700    0.0000 N   0  0
   15.2009  -24.6383    0.0000 C   0  0
   15.7465  -24.0299    0.0000 C   0  0
   16.5452  -24.2019    0.0000 C   0  0
   17.0906  -23.5943    0.0000 C   0  0
   16.8366  -22.8166    0.0000 C   0  0
   16.0322  -22.6501    0.0000 C   0  0
   15.4904  -23.2590    0.0000 C   0  0
   16.7974  -24.9792    0.0000 O   0  0
   17.5966  -25.1495    0.0000 C   0  0
   10.7521  -18.5025    0.0000 Cl  0  0
  1  2  2  0
  2  3  1  0
  3  6  2  0
  5  4  2  0
  4  1  1  0
  5  6  1  0
  6  7  1  0
  7  8  1  0
  8  9  1  0
  9  5  1  0
  9 10  2  0
  8 11  2  0
  7 12  1  0
 12 13  1  0
 13 14  1  0
 14 15  1  0
 14 19  1  0
 15 16  1  0
 16 17  1  0
 17 18  1  0
 18 19  1  0
 17 20  1  0
 20 21  1  0
 21 22  1  0
 22 23  2  0
 23 24  1  0
 24 25  2  0
 25 26  1  0
 26 27  2  0
 27 22  1  0
 23 28  1  0
 28 29  1  0
  1 30  1  0
M  END
> <From> 
www.bindingDB.org

> <BindingDB Reactant_set_id>
50543819

> <Ligand InChI>
InChI=1S/C22H25ClN4O3/c1-30-20-5-3-2-4-16(20)15-24-26-11-8-25(9-12-26)10-13-27-19-7-6-17(23)14-18(19)21(28)22(27)29/h2-7,14,24H,8-13,15H2,1H3

> <Ligand InChI Key>
PGQAUPSVRDYRKE-UHFFFAOYSA-N

> <BindingDB MonomerID>
50208286

> <BindingDB Ligand Name>
CHEMBL3884147

> <Target Name Assigned by Curator or DataSource>
DNA gyrase subunit B

> <Target Source Organism According to Curator or DataSource>


> <Ki (nM)>


> <IC50 (nM)>
 76000

> <Kd (nM)>


> <EC50 (nM)>


> <kon (M-1-s-1)>


> <koff (s-1)>


> <pH>


> <Temp C>


> <Curation/DataSource>
ChEMBL

> <Article DOI>
10.1016/j.ejmech.2016.08.034

> <PMID>
27569197

> <PubChem AID>


> <Patent Number>


> <Authors>
Chaudhari, K; Surana, S; Jain, P; Patel, HM

> <Institution>
R. C. Patel Institute of Pharmaceutical Education and Research

> <Link to Ligand in BindingDB>
http://www.bindingdb.org/bind/chemsearch/marvin/MolStructure.jsp?monomerid=50208286

> <Link to Ligand-Target Pair in BindingDB>
http://www.bindingdb.org/jsp/dbsearch/PrimarySearch_ki.jsp?energyterm=kJ/mole&tag=pol&polymerid=50006452&target=DNA+gyrase+subunit+B&column=ki&startPg=0&Increment=50&submit=Search

> <Link to Ligand-Target Pair in BindingDB>
http://www.bindingdb.org/jsp/dbsearch/PrimarySearch_ki.jsp?energyterm=kJ/mole&tag=r21&monomerid=50208286&enzyme=DNA+gyrase+subunit+B&column=ki&startPg=0&Increment=50&submit=Search

> <Ligand HET ID in PDB>


> <PDB ID(s) for Ligand-Target Complex>


> <PubChem CID>
134130747

> <PubChem SID>
375981979

> <ChEBI ID of Ligand>


> <ChEMBL ID of Ligand>


> <DrugBank ID of Ligand>


> <IUPHAR_GRAC ID of Ligand>


> <KEGG ID of Ligand>


> <ZINC ID of Ligand>


> <Number of Protein Chains in Target (>1 implies a multichain complex)>
1

> <BindingDB Target Chain Sequence>
MAAQKNNAPKEYGADSITILEGLEAVRKRPGMYIGSTGERGLHHLIWEVVDNAVDEAMAGFATRVDVKIHADGSVEVRDDGRGIPVEMHATGMPTIDVVMTQLHAGGKFDGETYAVSGGLHGVGVSVVNALSTRLEATVLRDGYEWFQYYDRSVPGKLKQGGETKETGTTIRFWADPEIFETTDYNFETVARRLQEMAFLNKGLTIELTDERVTAEEVVDDVVKDTAEAPKTADEKAAEATGPSKVKHRVFHYPGGLVDYVKHINRTKTPIQQSIIDFDGKGPGHEVEIAMQWNAGYSESVHTFANTINTHEGGTHEEGFRAALTSVVNRYAKDKKLLKDKDPNLTGDDIREGLAAVISVKVAEPQFEGQTKTKLGNTEVKSFVQKICNEQLQHWFEANPAEAKTVVNKAVSSAQARIAARKARELVRRKSATDIGGLPGKLADCRSTDPSKSELYVVEGDSAGGSAKSGRDSMFQAILPLRGKIINVEKARIDRVLKNTEVQSIITALGTGIHDEFDISKLRYHKIVLMADADVDGQHISTLLLTLLFRFMKPLVENGHIFLAQPPLYKLKWQRSEPEFAYSDRERDGLLEAGRAAGKKINVDDGIQRYKGLGEMDAKELWETTMDPSVRVLRQVTLDDAAAADELFSILMGEDVEARRSFITRNAKDVRFLDV

> <PDB ID(s) of Target Chain>
4BAE

> <UniProt (SwissProt) Recommended Name of Target Chain>
DNA gyrase subunit B

> <UniProt (SwissProt) Entry Name of Target Chain>
GYRB_MYCSM

> <UniProt (SwissProt) Primary ID of Target Chain>
P0C559

> <UniProt (SwissProt) Secondary ID(s) of Target Chain>
P48355,Q59555

> <UniProt (SwissProt) Alternative ID(s) of Target Chain>


> <UniProt (TrEMBL) Submitted Name of Target Chain>


> <UniProt (TrEMBL) Entry Name of Target Chain>


> <UniProt (TrEMBL) Primary ID of Target Chain>


> <UniProt (TrEMBL) Secondary ID(s) of Target Chain>


> <UniProt (TrEMBL) Alternative ID(s) of Target Chain>


$$$$

  SciTegic10231714382D

 29 32  0  0  0  0            999 V2000
   28.3857   -2.0099    0.0000 C   0  0
   28.3845   -2.8295    0.0000 C   0  0
   29.0926   -3.2384    0.0000 C   0  0
   29.0908   -1.6011    0.0000 C   0  0
   29.7994   -2.0063    0.0000 C   0  0
   29.8042   -2.8295    0.0000 C   0  0
   30.5886   -3.0793    0.0000 N   0  0
   31.0686   -2.4105    0.0000 C   0  0
   30.5808   -1.7474    0.0000 C   0  0
   30.8287   -0.9688    0.0000 O   0  0
   31.8858   -2.4056    0.0000 O   0  0
   30.8456   -3.8550    0.0000 C   0  0
   30.3024   -4.4655    0.0000 C   0  0
   30.5594   -5.2412    0.0000 N   0  0
   30.0190   -5.8500    0.0000 C   0  0
   30.2731   -6.6229    0.0000 C   0  0
   31.0729   -6.7924    0.0000 N   0  0
   31.6182   -6.1825    0.0000 C   0  0
   31.3638   -5.4032    0.0000 C   0  0
   31.3270   -7.5690    0.0000 N   0  0
   32.1267   -7.7373    0.0000 C   0  0
   32.6722   -7.1289    0.0000 C   0  0
   33.4710   -7.3009    0.0000 C   0  0
   34.0163   -6.6933    0.0000 C   0  0
   33.7624   -5.9156    0.0000 C   0  0
   32.9580   -5.7491    0.0000 C   0  0
   32.4162   -6.3580    0.0000 C   0  0
   33.7231   -8.0782    0.0000 F   0  0
   27.6779   -1.6015    0.0000 C   0  0
  1  2  2  0
  2  3  1  0
  3  6  2  0
  5  4  2  0
  4  1  1  0
  5  6  1  0
  6  7  1  0
  7  8  1  0
  8  9  1  0
  9  5  1  0
  9 10  2  0
  8 11  2  0
  7 12  1  0
 12 13  1  0
 13 14  1  0
 14 15  1  0
 14 19  1  0
 15 16  1  0
 16 17  1  0
 17 18  1  0
 18 19  1  0
 17 20  1  0
 20 21  1  0
 21 22  1  0
 22 23  2  0
 23 24  1  0
 24 25  2  0
 25 26  1  0
 26 27  2  0
 27 22  1  0
 23 28  1  0
  1 29  1  0
M  END
> <From> 
www.bindingDB.org

> <BindingDB Reactant_set_id>
50543803

> <Ligand InChI>
InChI=1S/C22H25FN4O2/c1-16-6-7-20-18(14-16)21(28)22(29)27(20)13-10-25-8-11-26(12-9-25)24-15-17-4-2-3-5-19(17)23/h2-7,14,24H,8-13,15H2,1H3

> <Ligand InChI Key>
SGXSBDMSONNICP-UHFFFAOYSA-N

> <BindingDB MonomerID>
50208270

> <BindingDB Ligand Name>
CHEMBL3884309

> <Target Name Assigned by Curator or DataSource>
DNA gyrase subunit B

> <Target Source Organism According to Curator or DataSource>


> <Ki (nM)>


> <IC50 (nM)>
 76000

> <Kd (nM)>


> <EC50 (nM)>


> <kon (M-1-s-1)>


> <koff (s-1)>


> <pH>


> <Temp C>


> <Curation/DataSource>
ChEMBL

> <Article DOI>
10.1016/j.ejmech.2016.08.034

> <PMID>
27569197

> <PubChem AID>


> <Patent Number>


> <Authors>
Chaudhari, K; Surana, S; Jain, P; Patel, HM

> <Institution>
R. C. Patel Institute of Pharmaceutical Education and Research

> <Link to Ligand in BindingDB>
http://www.bindingdb.org/bind/chemsearch/marvin/MolStructure.jsp?monomerid=50208270

> <Link to Ligand-Target Pair in BindingDB>
http://www.bindingdb.org/jsp/dbsearch/PrimarySearch_ki.jsp?energyterm=kJ/mole&tag=pol&polymerid=50006452&target=DNA+gyrase+subunit+B&column=ki&startPg=0&Increment=50&submit=Search

> <Link to Ligand-Target Pair in BindingDB>
http://www.bindingdb.org/jsp/dbsearch/PrimarySearch_ki.jsp?energyterm=kJ/mole&tag=r21&monomerid=50208270&enzyme=DNA+gyrase+subunit+B&column=ki&startPg=0&Increment=50&submit=Search

> <Ligand HET ID in PDB>


> <PDB ID(s) for Ligand-Target Complex>


> <PubChem CID>
134129878

> <PubChem SID>
375981963

> <ChEBI ID of Ligand>


> <ChEMBL ID of Ligand>


> <DrugBank ID of Ligand>


> <IUPHAR_GRAC ID of Ligand>


> <KEGG ID of Ligand>


> <ZINC ID of Ligand>


> <Number of Protein Chains in Target (>1 implies a multichain complex)>
1

> <BindingDB Target Chain Sequence>
MAAQKNNAPKEYGADSITILEGLEAVRKRPGMYIGSTGERGLHHLIWEVVDNAVDEAMAGFATRVDVKIHADGSVEVRDDGRGIPVEMHATGMPTIDVVMTQLHAGGKFDGETYAVSGGLHGVGVSVVNALSTRLEATVLRDGYEWFQYYDRSVPGKLKQGGETKETGTTIRFWADPEIFETTDYNFETVARRLQEMAFLNKGLTIELTDERVTAEEVVDDVVKDTAEAPKTADEKAAEATGPSKVKHRVFHYPGGLVDYVKHINRTKTPIQQSIIDFDGKGPGHEVEIAMQWNAGYSESVHTFANTINTHEGGTHEEGFRAALTSVVNRYAKDKKLLKDKDPNLTGDDIREGLAAVISVKVAEPQFEGQTKTKLGNTEVKSFVQKICNEQLQHWFEANPAEAKTVVNKAVSSAQARIAARKARELVRRKSATDIGGLPGKLADCRSTDPSKSELYVVEGDSAGGSAKSGRDSMFQAILPLRGKIINVEKARIDRVLKNTEVQSIITALGTGIHDEFDISKLRYHKIVLMADADVDGQHISTLLLTLLFRFMKPLVENGHIFLAQPPLYKLKWQRSEPEFAYSDRERDGLLEAGRAAGKKINVDDGIQRYKGLGEMDAKELWETTMDPSVRVLRQVTLDDAAAADELFSILMGEDVEARRSFITRNAKDVRFLDV

> <PDB ID(s) of Target Chain>
4BAE

> <UniProt (SwissProt) Recommended Name of Target Chain>
DNA gyrase subunit B

> <UniProt (SwissProt) Entry Name of Target Chain>
GYRB_MYCSM

> <UniProt (SwissProt) Primary ID of Target Chain>
P0C559

> <UniProt (SwissProt) Secondary ID(s) of Target Chain>
P48355,Q59555

> <UniProt (SwissProt) Alternative ID(s) of Target Chain>


> <UniProt (TrEMBL) Submitted Name of Target Chain>


> <UniProt (TrEMBL) Entry Name of Target Chain>


> <UniProt (TrEMBL) Primary ID of Target Chain>


> <UniProt (TrEMBL) Secondary ID(s) of Target Chain>


> <UniProt (TrEMBL) Alternative ID(s) of Target Chain>


$$$$

  SciTegic10201713292D

 30 33  0  0  0  0            999 V2000
   32.5129  -10.9949    0.0000 C   0  0
   32.5117  -11.8144    0.0000 C   0  0
   33.2198  -12.2234    0.0000 C   0  0
   33.2180  -10.5860    0.0000 C   0  0
   33.9266  -10.9913    0.0000 C   0  0
   33.9314  -11.8145    0.0000 C   0  0
   34.7158  -12.0643    0.0000 N   0  0
   35.1958  -11.3954    0.0000 C   0  0
   34.7080  -10.7324    0.0000 C   0  0
   34.9560   -9.9537    0.0000 O   0  0
   36.0130  -11.3906    0.0000 O   0  0
   34.9729  -12.8400    0.0000 C   0  0
   34.4296  -13.4505    0.0000 C   0  0
   34.6867  -14.2262    0.0000 N   0  0
   34.1462  -14.8350    0.0000 C   0  0
   34.4003  -15.6079    0.0000 C   0  0
   35.2001  -15.7773    0.0000 N   0  0
   35.7455  -15.1675    0.0000 C   0  0
   35.4910  -14.3881    0.0000 C   0  0
   35.4542  -16.5540    0.0000 N   0  0
   36.2539  -16.7223    0.0000 C   0  0
   36.7995  -16.1139    0.0000 C   0  0
   37.5982  -16.2859    0.0000 C   0  0
   38.1436  -15.6783    0.0000 C   0  0
   37.8896  -14.9006    0.0000 C   0  0
   37.0852  -14.7341    0.0000 C   0  0
   36.5434  -15.3430    0.0000 C   0  0
   37.8504  -17.0632    0.0000 Cl  0  0
   38.4343  -14.2915    0.0000 Cl  0  0
   31.8051  -10.5865    0.0000 C   0  0
  1  2  2  0
  2  3  1  0
  3  6  2  0
  5  4  2  0
  4  1  1  0
  5  6  1  0
  6  7  1  0
  7  8  1  0
  8  9  1  0
  9  5  1  0
  9 10  2  0
  8 11  2  0
  7 12  1  0
 12 13  1  0
 13 14  1  0
 14 15  1  0
 14 19  1  0
 15 16  1  0
 16 17  1  0
 17 18  1  0
 18 19  1  0
 17 20  1  0
 20 21  1  0
 21 22  1  0
 22 23  2  0
 23 24  1  0
 24 25  2  0
 25 26  1  0
 26 27  2  0
 27 22  1  0
 23 28  1  0
 25 29  1  0
  1 30  1  0
M  END
> <From> 
www.bindingDB.org

> <BindingDB Reactant_set_id>
50543810

> <Ligand InChI>
InChI=1S/C22H24Cl2N4O2/c1-15-2-5-20-18(12-15)21(29)22(30)28(20)11-8-26-6-9-27(10-7-26)25-14-16-3-4-17(23)13-19(16)24/h2-5,12-13,25H,6-11,14H2,1H3

> <Ligand InChI Key>
OIZDZCIOFFRQRD-UHFFFAOYSA-N

> <BindingDB MonomerID>
50208277

> <BindingDB Ligand Name>
CHEMBL3883577

> <Target Name Assigned by Curator or DataSource>
DNA gyrase subunit B

> <Target Source Organism According to Curator or DataSource>


> <Ki (nM)>


> <IC50 (nM)>
 79000

> <Kd (nM)>


> <EC50 (nM)>


> <kon (M-1-s-1)>


> <koff (s-1)>


> <pH>


> <Temp C>


> <Curation/DataSource>
ChEMBL

> <Article DOI>
10.1016/j.ejmech.2016.08.034

> <PMID>
27569197

> <PubChem AID>


> <Patent Number>


> <Authors>
Chaudhari, K; Surana, S; Jain, P; Patel, HM

> <Institution>
R. C. Patel Institute of Pharmaceutical Education and Research

> <Link to Ligand in BindingDB>
http://www.bindingdb.org/bind/chemsearch/marvin/MolStructure.jsp?monomerid=50208277

> <Link to Ligand-Target Pair in BindingDB>
http://www.bindingdb.org/jsp/dbsearch/PrimarySearch_ki.jsp?energyterm=kJ/mole&tag=pol&polymerid=50006452&target=DNA+gyrase+subunit+B&column=ki&startPg=0&Increment=50&submit=Search

> <Link to Ligand-Target Pair in BindingDB>
http://www.bindingdb.org/jsp/dbsearch/PrimarySearch_ki.jsp?energyterm=kJ/mole&tag=r21&monomerid=50208277&enzyme=DNA+gyrase+subunit+B&column=ki&startPg=0&Increment=50&submit=Search

> <Ligand HET ID in PDB>


> <PDB ID(s) for Ligand-Target Complex>


> <PubChem CID>
134131289

> <PubChem SID>
375981970

> <ChEBI ID of Ligand>


> <ChEMBL ID of Ligand>


> <DrugBank ID of Ligand>


> <IUPHAR_GRAC ID of Ligand>


> <KEGG ID of Ligand>


> <ZINC ID of Ligand>


> <Number of Protein Chains in Target (>1 implies a multichain complex)>
1

> <BindingDB Target Chain Sequence>
MAAQKNNAPKEYGADSITILEGLEAVRKRPGMYIGSTGERGLHHLIWEVVDNAVDEAMAGFATRVDVKIHADGSVEVRDDGRGIPVEMHATGMPTIDVVMTQLHAGGKFDGETYAVSGGLHGVGVSVVNALSTRLEATVLRDGYEWFQYYDRSVPGKLKQGGETKETGTTIRFWADPEIFETTDYNFETVARRLQEMAFLNKGLTIELTDERVTAEEVVDDVVKDTAEAPKTADEKAAEATGPSKVKHRVFHYPGGLVDYVKHINRTKTPIQQSIIDFDGKGPGHEVEIAMQWNAGYSESVHTFANTINTHEGGTHEEGFRAALTSVVNRYAKDKKLLKDKDPNLTGDDIREGLAAVISVKVAEPQFEGQTKTKLGNTEVKSFVQKICNEQLQHWFEANPAEAKTVVNKAVSSAQARIAARKARELVRRKSATDIGGLPGKLADCRSTDPSKSELYVVEGDSAGGSAKSGRDSMFQAILPLRGKIINVEKARIDRVLKNTEVQSIITALGTGIHDEFDISKLRYHKIVLMADADVDGQHISTLLLTLLFRFMKPLVENGHIFLAQPPLYKLKWQRSEPEFAYSDRERDGLLEAGRAAGKKINVDDGIQRYKGLGEMDAKELWETTMDPSVRVLRQVTLDDAAAADELFSILMGEDVEARRSFITRNAKDVRFLDV

> <PDB ID(s) of Target Chain>
4BAE

> <UniProt (SwissProt) Recommended Name of Target Chain>
DNA gyrase subunit B

> <UniProt (SwissProt) Entry Name of Target Chain>
GYRB_MYCSM

> <UniProt (SwissProt) Primary ID of Target Chain>
P0C559

> <UniProt (SwissProt) Secondary ID(s) of Target Chain>
P48355,Q59555

> <UniProt (SwissProt) Alternative ID(s) of Target Chain>


> <UniProt (TrEMBL) Submitted Name of Target Chain>


> <UniProt (TrEMBL) Entry Name of Target Chain>


> <UniProt (TrEMBL) Primary ID of Target Chain>


> <UniProt (TrEMBL) Secondary ID(s) of Target Chain>


> <UniProt (TrEMBL) Alternative ID(s) of Target Chain>


$$$$

  SciTegic09261414462D

 12 12  0  0  0  0            999 V2000
    5.2278   -9.5421    0.0000 C   0  0
    5.2266  -10.3617    0.0000 N   0  0
    5.9347  -10.7706    0.0000 C   0  0
    6.6443  -10.3612    0.0000 C   0  0
    6.6415   -9.5385    0.0000 C   0  0
    5.9329   -9.1333    0.0000 N   0  0
    4.5200   -9.1337    0.0000 N   0  0
    3.8124   -9.5425    0.0000 C   0  0
    3.1046   -9.1340    0.0000 N   0  0
    3.8126  -10.3596    0.0000 O   0  0
    2.3969   -9.5428    0.0000 C   0  0
    1.6891   -9.1344    0.0000 C   0  0
  1  2  2  0
  2  3  1  0
  3  4  2  0
  4  5  1  0
  5  6  2  0
  6  1  1  0
  1  7  1  0
  7  8  1  0
  8  9  1  0
  8 10  2  0
  9 11  1  0
 11 12  1  0
M  END
> <From> 
www.bindingDB.org

> <BindingDB Reactant_set_id>
50083252

> <Ligand InChI>
InChI=1S/C7H10N4O/c1-2-8-7(12)11-6-9-4-3-5-10-6/h3-5H,2H2,1H3,(H2,8,9,10,11,12)

> <Ligand InChI Key>
NVVPLFQMHAHMOK-UHFFFAOYSA-N

> <BindingDB MonomerID>
50006544

> <BindingDB Ligand Name>
CHEMBL3235068

> <Target Name Assigned by Curator or DataSource>
DNA Gyrase Subunit B

> <Target Source Organism According to Curator or DataSource>
Staphylococcus aureus

> <Ki (nM)>


> <IC50 (nM)>
 80000

> <Kd (nM)>


> <EC50 (nM)>


> <kon (M-1-s-1)>


> <koff (s-1)>


> <pH>


> <Temp C>


> <Curation/DataSource>
ChEMBL

> <Article DOI>
10.1021/jm401208b

> <PMID>
24098982

> <PubChem AID>


> <Patent Number>


> <Authors>
Basarab, GS; Basarab, GS; Boriack-Sjodin, PA; Boriack-Sjodin, PA; Illingworth, R; Illingworth, R; Manchester, JI; Manchester, JI; Dangel, B; Dangel, B; Sriram, S; Sriram, S

> <Institution>
AstraZeneca R&amp;D Boston

> <Link to Ligand in BindingDB>
http://www.bindingdb.org/bind/chemsearch/marvin/MolStructure.jsp?monomerid=50006544

> <Link to Ligand-Target Pair in BindingDB>
http://www.bindingdb.org/jsp/dbsearch/PrimarySearch_ki.jsp?energyterm=kJ/mole&tag=pol&polymerid=2626&target=DNA+Gyrase+Subunit+B&column=ki&startPg=0&Increment=50&submit=Search

> <Link to Ligand-Target Pair in BindingDB>
http://www.bindingdb.org/jsp/dbsearch/PrimarySearch_ki.jsp?energyterm=kJ/mole&tag=r21&monomerid=50006544&enzyme=DNA+Gyrase+Subunit+B&column=ki&startPg=0&Increment=50&submit=Search

> <Ligand HET ID in PDB>


> <PDB ID(s) for Ligand-Target Complex>


> <PubChem CID>
90654975

> <PubChem SID>
103919945

> <ChEBI ID of Ligand>


> <ChEMBL ID of Ligand>
CHEMBL3235068

> <DrugBank ID of Ligand>


> <IUPHAR_GRAC ID of Ligand>


> <KEGG ID of Ligand>


> <ZINC ID of Ligand>
ZINC26282971

> <Number of Protein Chains in Target (>1 implies a multichain complex)>
1

> <BindingDB Target Chain Sequence>
MVTALSDVNNTDNYGAGQIQVLEGLEAVRKRPGMYIGSTSERGLHHLVWEIVDNSIDEALAGYANQIEVVIEKDNWIKVTDNGRGIPVDIQEKMGRPAVEVILTVLHAGGKFGGGGYKVSGGLHGVGSSVVNALSQDLEVYVHRNETIYHQAYKKGVPQFDLKEVGTTDKTGTVIRFKADGEIFTETTVYNYETLQQRIRELAFLNKGIQITLRDERDEENVREDSYHYEGGIKSYVELLNENKEPIHDEPIYIHQSKDDIEVEIAIQYNSGYATNLLTYANNIHTYEGGTHEDGFKRALTRVLNSYGLSSKIMKEEKDRLSGEDTREGMTAIISIKHGDPQFEGQTKTKLGNSEVRQVVDKLFSEHFERFLYENPQVARTVVEKGIMAARARVAAKKAREVTRRKSALDVASLPGKLADCSSKSPEECEIFLVEGDSAGGSTKSGRDSRTQAILPLRGKILNVEKARLDRILNNNEIRQMITAFGTGIGGDFDLAKARYHKIVIMTDADVDGAHIRTLLLTFFYRFMRPLIEAGYVYIAQPPLYKLTQGKQKYYVYNDRELDKLKSELNPTPKWSIARYKGLGEMNADQLWETTMNPEHRALLQVKLEDAIEADQTFEMLMGDVVENRRQFIEDNAVYANLDF

> <PDB ID(s) of Target Chain>


> <UniProt (SwissProt) Recommended Name of Target Chain>
DNA gyrase subunit B

> <UniProt (SwissProt) Entry Name of Target Chain>
GYRB_STAAU

> <UniProt (SwissProt) Primary ID of Target Chain>
P0A0K8

> <UniProt (SwissProt) Secondary ID(s) of Target Chain>
P20832

> <UniProt (SwissProt) Alternative ID(s) of Target Chain>


> <UniProt (TrEMBL) Submitted Name of Target Chain>


> <UniProt (TrEMBL) Entry Name of Target Chain>


> <UniProt (TrEMBL) Primary ID of Target Chain>


> <UniProt (TrEMBL) Secondary ID(s) of Target Chain>


> <UniProt (TrEMBL) Alternative ID(s) of Target Chain>


$$$$

  SciTegic10241708092D

 31 34  0  0  0  0            999 V2000
   19.9083  -19.0141    0.0000 C   0  0
   19.9072  -19.8336    0.0000 C   0  0
   20.6152  -20.2426    0.0000 C   0  0
   20.6134  -18.6052    0.0000 C   0  0
   21.3221  -19.0105    0.0000 C   0  0
   21.3269  -19.8337    0.0000 C   0  0
   22.1113  -20.0835    0.0000 N   0  0
   22.5913  -19.4147    0.0000 C   0  0
   22.1035  -18.7516    0.0000 C   0  0
   22.3514  -17.9729    0.0000 O   0  0
   23.4084  -19.4098    0.0000 O   0  0
   22.3683  -20.8592    0.0000 C   0  0
   21.8251  -21.4697    0.0000 C   0  0
   22.0821  -22.2454    0.0000 N   0  0
   21.5417  -22.8542    0.0000 C   0  0
   21.7958  -23.6271    0.0000 C   0  0
   22.5955  -23.7965    0.0000 N   0  0
   23.1409  -23.1867    0.0000 C   0  0
   22.8865  -22.4074    0.0000 C   0  0
   22.8497  -24.5732    0.0000 N   0  0
   23.6493  -24.7415    0.0000 C   0  0
   24.1949  -24.1331    0.0000 C   0  0
   24.9937  -24.3051    0.0000 C   0  0
   25.5390  -23.6975    0.0000 C   0  0
   25.2850  -22.9198    0.0000 C   0  0
   24.4807  -22.7533    0.0000 C   0  0
   23.9389  -23.3622    0.0000 C   0  0
   25.2458  -25.0824    0.0000 O   0  0
   26.0451  -25.2527    0.0000 C   0  0
   19.2005  -18.6057    0.0000 O   0  0
   19.2003  -17.7885    0.0000 C   0  0
  1  2  2  0
  2  3  1  0
  3  6  2  0
  5  4  2  0
  4  1  1  0
  5  6  1  0
  6  7  1  0
  7  8  1  0
  8  9  1  0
  9  5  1  0
  9 10  2  0
  8 11  2  0
  7 12  1  0
 12 13  1  0
 13 14  1  0
 14 15  1  0
 14 19  1  0
 15 16  1  0
 16 17  1  0
 17 18  1  0
 18 19  1  0
 17 20  1  0
 20 21  1  0
 21 22  1  0
 22 23  2  0
 23 24  1  0
 24 25  2  0
 25 26  1  0
 26 27  2  0
 27 22  1  0
 23 28  1  0
 28 29  1  0
  1 30  1  0
 30 31  1  0
M  END
> <From> 
www.bindingDB.org

> <BindingDB Reactant_set_id>
50543804

> <Ligand InChI>
InChI=1S/C23H28N4O4/c1-30-18-7-8-20-19(15-18)22(28)23(29)27(20)14-11-25-9-12-26(13-10-25)24-16-17-5-3-4-6-21(17)31-2/h3-8,15,24H,9-14,16H2,1-2H3

> <Ligand InChI Key>
MVKCVVYZSTWNJF-UHFFFAOYSA-N

> <BindingDB MonomerID>
50208271

> <BindingDB Ligand Name>
CHEMBL3885052

> <Target Name Assigned by Curator or DataSource>
DNA gyrase subunit B

> <Target Source Organism According to Curator or DataSource>


> <Ki (nM)>


> <IC50 (nM)>
 81200

> <Kd (nM)>


> <EC50 (nM)>


> <kon (M-1-s-1)>


> <koff (s-1)>


> <pH>


> <Temp C>


> <Curation/DataSource>
ChEMBL

> <Article DOI>
10.1016/j.ejmech.2016.08.034

> <PMID>
27569197

> <PubChem AID>


> <Patent Number>


> <Authors>
Chaudhari, K; Surana, S; Jain, P; Patel, HM

> <Institution>
R. C. Patel Institute of Pharmaceutical Education and Research

> <Link to Ligand in BindingDB>
http://www.bindingdb.org/bind/chemsearch/marvin/MolStructure.jsp?monomerid=50208271

> <Link to Ligand-Target Pair in BindingDB>
http://www.bindingdb.org/jsp/dbsearch/PrimarySearch_ki.jsp?energyterm=kJ/mole&tag=pol&polymerid=50006452&target=DNA+gyrase+subunit+B&column=ki&startPg=0&Increment=50&submit=Search

> <Link to Ligand-Target Pair in BindingDB>
http://www.bindingdb.org/jsp/dbsearch/PrimarySearch_ki.jsp?energyterm=kJ/mole&tag=r21&monomerid=50208271&enzyme=DNA+gyrase+subunit+B&column=ki&startPg=0&Increment=50&submit=Search

> <Ligand HET ID in PDB>


> <PDB ID(s) for Ligand-Target Complex>


> <PubChem CID>
134130123

> <PubChem SID>
375981964

> <ChEBI ID of Ligand>


> <ChEMBL ID of Ligand>


> <DrugBank ID of Ligand>


> <IUPHAR_GRAC ID of Ligand>


> <KEGG ID of Ligand>


> <ZINC ID of Ligand>


> <Number of Protein Chains in Target (>1 implies a multichain complex)>
1

> <BindingDB Target Chain Sequence>
MAAQKNNAPKEYGADSITILEGLEAVRKRPGMYIGSTGERGLHHLIWEVVDNAVDEAMAGFATRVDVKIHADGSVEVRDDGRGIPVEMHATGMPTIDVVMTQLHAGGKFDGETYAVSGGLHGVGVSVVNALSTRLEATVLRDGYEWFQYYDRSVPGKLKQGGETKETGTTIRFWADPEIFETTDYNFETVARRLQEMAFLNKGLTIELTDERVTAEEVVDDVVKDTAEAPKTADEKAAEATGPSKVKHRVFHYPGGLVDYVKHINRTKTPIQQSIIDFDGKGPGHEVEIAMQWNAGYSESVHTFANTINTHEGGTHEEGFRAALTSVVNRYAKDKKLLKDKDPNLTGDDIREGLAAVISVKVAEPQFEGQTKTKLGNTEVKSFVQKICNEQLQHWFEANPAEAKTVVNKAVSSAQARIAARKARELVRRKSATDIGGLPGKLADCRSTDPSKSELYVVEGDSAGGSAKSGRDSMFQAILPLRGKIINVEKARIDRVLKNTEVQSIITALGTGIHDEFDISKLRYHKIVLMADADVDGQHISTLLLTLLFRFMKPLVENGHIFLAQPPLYKLKWQRSEPEFAYSDRERDGLLEAGRAAGKKINVDDGIQRYKGLGEMDAKELWETTMDPSVRVLRQVTLDDAAAADELFSILMGEDVEARRSFITRNAKDVRFLDV

> <PDB ID(s) of Target Chain>
4BAE

> <UniProt (SwissProt) Recommended Name of Target Chain>
DNA gyrase subunit B

> <UniProt (SwissProt) Entry Name of Target Chain>
GYRB_MYCSM

> <UniProt (SwissProt) Primary ID of Target Chain>
P0C559

> <UniProt (SwissProt) Secondary ID(s) of Target Chain>
P48355,Q59555

> <UniProt (SwissProt) Alternative ID(s) of Target Chain>


> <UniProt (TrEMBL) Submitted Name of Target Chain>


> <UniProt (TrEMBL) Entry Name of Target Chain>


> <UniProt (TrEMBL) Primary ID of Target Chain>


> <UniProt (TrEMBL) Secondary ID(s) of Target Chain>


> <UniProt (TrEMBL) Alternative ID(s) of Target Chain>


$$$$

  SciTegic10231716262D

 28 31  0  0  0  0            999 V2000
   20.0817   -2.0553    0.0000 C   0  0
   20.0805   -2.8749    0.0000 C   0  0
   20.7886   -3.2838    0.0000 C   0  0
   20.7868   -1.6465    0.0000 C   0  0
   21.4954   -2.0517    0.0000 C   0  0
   21.5002   -2.8749    0.0000 C   0  0
   22.2846   -3.1247    0.0000 N   0  0
   22.7646   -2.4559    0.0000 C   0  0
   22.2768   -1.7928    0.0000 C   0  0
   22.5247   -1.0142    0.0000 O   0  0
   23.5818   -2.4510    0.0000 O   0  0
   22.5417   -3.9004    0.0000 C   0  0
   21.9984   -4.5109    0.0000 C   0  0
   22.2554   -5.2866    0.0000 N   0  0
   21.7150   -5.8954    0.0000 C   0  0
   21.9691   -6.6683    0.0000 C   0  0
   22.7689   -6.8378    0.0000 N   0  0
   23.3142   -6.2279    0.0000 C   0  0
   23.0598   -5.4486    0.0000 C   0  0
   23.0230   -7.6144    0.0000 N   0  0
   23.8227   -7.7827    0.0000 C   0  0
   24.3682   -7.1743    0.0000 C   0  0
   25.1670   -7.3463    0.0000 C   0  0
   25.7123   -6.7387    0.0000 C   0  0
   25.4584   -5.9610    0.0000 C   0  0
   24.6540   -5.7945    0.0000 C   0  0
   24.1122   -6.4034    0.0000 C   0  0
   25.4191   -8.1236    0.0000 F   0  0
  1  2  2  0
  2  3  1  0
  3  6  2  0
  5  4  2  0
  4  1  1  0
  5  6  1  0
  6  7  1  0
  7  8  1  0
  8  9  1  0
  9  5  1  0
  9 10  2  0
  8 11  2  0
  7 12  1  0
 12 13  1  0
 13 14  1  0
 14 15  1  0
 14 19  1  0
 15 16  1  0
 16 17  1  0
 17 18  1  0
 18 19  1  0
 17 20  1  0
 20 21  1  0
 21 22  1  0
 22 23  2  0
 23 24  1  0
 24 25  2  0
 25 26  1  0
 26 27  2  0
 27 22  1  0
 23 28  1  0
M  END
> <From> 
www.bindingDB.org

> <BindingDB Reactant_set_id>
50543818

> <Ligand InChI>
InChI=1S/C21H23FN4O2/c22-18-7-3-1-5-16(18)15-23-25-12-9-24(10-13-25)11-14-26-19-8-4-2-6-17(19)20(27)21(26)28/h1-8,23H,9-15H2

> <Ligand InChI Key>
FDRDHMRROSFDAM-UHFFFAOYSA-N

> <BindingDB MonomerID>
50208285

> <BindingDB Ligand Name>
CHEMBL3884900

> <Target Name Assigned by Curator or DataSource>
DNA gyrase subunit B

> <Target Source Organism According to Curator or DataSource>


> <Ki (nM)>


> <IC50 (nM)>
 83000

> <Kd (nM)>


> <EC50 (nM)>


> <kon (M-1-s-1)>


> <koff (s-1)>


> <pH>


> <Temp C>


> <Curation/DataSource>
ChEMBL

> <Article DOI>
10.1016/j.ejmech.2016.08.034

> <PMID>
27569197

> <PubChem AID>


> <Patent Number>


> <Authors>
Chaudhari, K; Surana, S; Jain, P; Patel, HM

> <Institution>
R. C. Patel Institute of Pharmaceutical Education and Research

> <Link to Ligand in BindingDB>
http://www.bindingdb.org/bind/chemsearch/marvin/MolStructure.jsp?monomerid=50208285

> <Link to Ligand-Target Pair in BindingDB>
http://www.bindingdb.org/jsp/dbsearch/PrimarySearch_ki.jsp?energyterm=kJ/mole&tag=pol&polymerid=50006452&target=DNA+gyrase+subunit+B&column=ki&startPg=0&Increment=50&submit=Search

> <Link to Ligand-Target Pair in BindingDB>
http://www.bindingdb.org/jsp/dbsearch/PrimarySearch_ki.jsp?energyterm=kJ/mole&tag=r21&monomerid=50208285&enzyme=DNA+gyrase+subunit+B&column=ki&startPg=0&Increment=50&submit=Search

> <Ligand HET ID in PDB>


> <PDB ID(s) for Ligand-Target Complex>


> <PubChem CID>
134131593

> <PubChem SID>
375981978

> <ChEBI ID of Ligand>


> <ChEMBL ID of Ligand>


> <DrugBank ID of Ligand>


> <IUPHAR_GRAC ID of Ligand>


> <KEGG ID of Ligand>


> <ZINC ID of Ligand>


> <Number of Protein Chains in Target (>1 implies a multichain complex)>
1

> <BindingDB Target Chain Sequence>
MAAQKNNAPKEYGADSITILEGLEAVRKRPGMYIGSTGERGLHHLIWEVVDNAVDEAMAGFATRVDVKIHADGSVEVRDDGRGIPVEMHATGMPTIDVVMTQLHAGGKFDGETYAVSGGLHGVGVSVVNALSTRLEATVLRDGYEWFQYYDRSVPGKLKQGGETKETGTTIRFWADPEIFETTDYNFETVARRLQEMAFLNKGLTIELTDERVTAEEVVDDVVKDTAEAPKTADEKAAEATGPSKVKHRVFHYPGGLVDYVKHINRTKTPIQQSIIDFDGKGPGHEVEIAMQWNAGYSESVHTFANTINTHEGGTHEEGFRAALTSVVNRYAKDKKLLKDKDPNLTGDDIREGLAAVISVKVAEPQFEGQTKTKLGNTEVKSFVQKICNEQLQHWFEANPAEAKTVVNKAVSSAQARIAARKARELVRRKSATDIGGLPGKLADCRSTDPSKSELYVVEGDSAGGSAKSGRDSMFQAILPLRGKIINVEKARIDRVLKNTEVQSIITALGTGIHDEFDISKLRYHKIVLMADADVDGQHISTLLLTLLFRFMKPLVENGHIFLAQPPLYKLKWQRSEPEFAYSDRERDGLLEAGRAAGKKINVDDGIQRYKGLGEMDAKELWETTMDPSVRVLRQVTLDDAAAADELFSILMGEDVEARRSFITRNAKDVRFLDV

> <PDB ID(s) of Target Chain>
4BAE

> <UniProt (SwissProt) Recommended Name of Target Chain>
DNA gyrase subunit B

> <UniProt (SwissProt) Entry Name of Target Chain>
GYRB_MYCSM

> <UniProt (SwissProt) Primary ID of Target Chain>
P0C559

> <UniProt (SwissProt) Secondary ID(s) of Target Chain>
P48355,Q59555

> <UniProt (SwissProt) Alternative ID(s) of Target Chain>


> <UniProt (TrEMBL) Submitted Name of Target Chain>


> <UniProt (TrEMBL) Entry Name of Target Chain>


> <UniProt (TrEMBL) Primary ID of Target Chain>


> <UniProt (TrEMBL) Secondary ID(s) of Target Chain>


> <UniProt (TrEMBL) Alternative ID(s) of Target Chain>


$$$$

  SciTegic10201713322D

 29 32  0  0  0  0            999 V2000
   21.9843  -10.4088    0.0000 C   0  0
   21.9832  -11.2284    0.0000 C   0  0
   22.6912  -11.6373    0.0000 C   0  0
   22.6894  -10.0000    0.0000 C   0  0
   23.3981  -10.4052    0.0000 C   0  0
   23.4029  -11.2284    0.0000 C   0  0
   24.1873  -11.4782    0.0000 N   0  0
   24.6673  -10.8094    0.0000 C   0  0
   24.1795  -10.1463    0.0000 C   0  0
   24.4274   -9.3677    0.0000 O   0  0
   25.4844  -10.8046    0.0000 O   0  0
   24.4443  -12.2539    0.0000 C   0  0
   23.9011  -12.8644    0.0000 C   0  0
   24.1581  -13.6401    0.0000 N   0  0
   23.6177  -14.2489    0.0000 C   0  0
   23.8717  -15.0218    0.0000 C   0  0
   24.6715  -15.1913    0.0000 N   0  0
   25.2169  -14.5814    0.0000 C   0  0
   24.9625  -13.8021    0.0000 C   0  0
   24.9256  -15.9679    0.0000 N   0  0
   25.7253  -16.1362    0.0000 C   0  0
   26.2709  -15.5278    0.0000 C   0  0
   27.0697  -15.6998    0.0000 C   0  0
   27.6150  -15.0922    0.0000 C   0  0
   27.3610  -14.3146    0.0000 C   0  0
   26.5567  -14.1480    0.0000 C   0  0
   26.0149  -14.7569    0.0000 C   0  0
   27.3218  -16.4771    0.0000 Cl  0  0
   27.9058  -13.7054    0.0000 Cl  0  0
  1  2  2  0
  2  3  1  0
  3  6  2  0
  5  4  2  0
  4  1  1  0
  5  6  1  0
  6  7  1  0
  7  8  1  0
  8  9  1  0
  9  5  1  0
  9 10  2  0
  8 11  2  0
  7 12  1  0
 12 13  1  0
 13 14  1  0
 14 15  1  0
 14 19  1  0
 15 16  1  0
 16 17  1  0
 17 18  1  0
 18 19  1  0
 17 20  1  0
 20 21  1  0
 21 22  1  0
 22 23  2  0
 23 24  1  0
 24 25  2  0
 25 26  1  0
 26 27  2  0
 27 22  1  0
 23 28  1  0
 25 29  1  0
M  END
> <From> 
www.bindingDB.org

> <BindingDB Reactant_set_id>
50543814

> <Ligand InChI>
InChI=1S/C21H22Cl2N4O2/c22-16-6-5-15(18(23)13-16)14-24-26-10-7-25(8-11-26)9-12-27-19-4-2-1-3-17(19)20(28)21(27)29/h1-6,13,24H,7-12,14H2

> <Ligand InChI Key>
QMCGOKSGNMSXLG-UHFFFAOYSA-N

> <BindingDB MonomerID>
50208281

> <BindingDB Ligand Name>
CHEMBL3883607

> <Target Name Assigned by Curator or DataSource>
DNA gyrase subunit B

> <Target Source Organism According to Curator or DataSource>


> <Ki (nM)>


> <IC50 (nM)>
 84000

> <Kd (nM)>


> <EC50 (nM)>


> <kon (M-1-s-1)>


> <koff (s-1)>


> <pH>


> <Temp C>


> <Curation/DataSource>
ChEMBL

> <Article DOI>
10.1016/j.ejmech.2016.08.034

> <PMID>
27569197

> <PubChem AID>


> <Patent Number>


> <Authors>
Chaudhari, K; Surana, S; Jain, P; Patel, HM

> <Institution>
R. C. Patel Institute of Pharmaceutical Education and Research

> <Link to Ligand in BindingDB>
http://www.bindingdb.org/bind/chemsearch/marvin/MolStructure.jsp?monomerid=50208281

> <Link to Ligand-Target Pair in BindingDB>
http://www.bindingdb.org/jsp/dbsearch/PrimarySearch_ki.jsp?energyterm=kJ/mole&tag=pol&polymerid=50006452&target=DNA+gyrase+subunit+B&column=ki&startPg=0&Increment=50&submit=Search

> <Link to Ligand-Target Pair in BindingDB>
http://www.bindingdb.org/jsp/dbsearch/PrimarySearch_ki.jsp?energyterm=kJ/mole&tag=r21&monomerid=50208281&enzyme=DNA+gyrase+subunit+B&column=ki&startPg=0&Increment=50&submit=Search

> <Ligand HET ID in PDB>


> <PDB ID(s) for Ligand-Target Complex>


> <PubChem CID>
134130713

> <PubChem SID>
375981974

> <ChEBI ID of Ligand>


> <ChEMBL ID of Ligand>


> <DrugBank ID of Ligand>


> <IUPHAR_GRAC ID of Ligand>


> <KEGG ID of Ligand>


> <ZINC ID of Ligand>


> <Number of Protein Chains in Target (>1 implies a multichain complex)>
1

> <BindingDB Target Chain Sequence>
MAAQKNNAPKEYGADSITILEGLEAVRKRPGMYIGSTGERGLHHLIWEVVDNAVDEAMAGFATRVDVKIHADGSVEVRDDGRGIPVEMHATGMPTIDVVMTQLHAGGKFDGETYAVSGGLHGVGVSVVNALSTRLEATVLRDGYEWFQYYDRSVPGKLKQGGETKETGTTIRFWADPEIFETTDYNFETVARRLQEMAFLNKGLTIELTDERVTAEEVVDDVVKDTAEAPKTADEKAAEATGPSKVKHRVFHYPGGLVDYVKHINRTKTPIQQSIIDFDGKGPGHEVEIAMQWNAGYSESVHTFANTINTHEGGTHEEGFRAALTSVVNRYAKDKKLLKDKDPNLTGDDIREGLAAVISVKVAEPQFEGQTKTKLGNTEVKSFVQKICNEQLQHWFEANPAEAKTVVNKAVSSAQARIAARKARELVRRKSATDIGGLPGKLADCRSTDPSKSELYVVEGDSAGGSAKSGRDSMFQAILPLRGKIINVEKARIDRVLKNTEVQSIITALGTGIHDEFDISKLRYHKIVLMADADVDGQHISTLLLTLLFRFMKPLVENGHIFLAQPPLYKLKWQRSEPEFAYSDRERDGLLEAGRAAGKKINVDDGIQRYKGLGEMDAKELWETTMDPSVRVLRQVTLDDAAAADELFSILMGEDVEARRSFITRNAKDVRFLDV

> <PDB ID(s) of Target Chain>
4BAE

> <UniProt (SwissProt) Recommended Name of Target Chain>
DNA gyrase subunit B

> <UniProt (SwissProt) Entry Name of Target Chain>
GYRB_MYCSM

> <UniProt (SwissProt) Primary ID of Target Chain>
P0C559

> <UniProt (SwissProt) Secondary ID(s) of Target Chain>
P48355,Q59555

> <UniProt (SwissProt) Alternative ID(s) of Target Chain>


> <UniProt (TrEMBL) Submitted Name of Target Chain>


> <UniProt (TrEMBL) Entry Name of Target Chain>


> <UniProt (TrEMBL) Primary ID of Target Chain>


> <UniProt (TrEMBL) Secondary ID(s) of Target Chain>


> <UniProt (TrEMBL) Alternative ID(s) of Target Chain>


$$$$

  SciTegic10241712422D

 29 32  0  0  0  0            999 V2000
   11.4434  -18.0772    0.0000 C   0  0
   11.4422  -18.8968    0.0000 C   0  0
   12.1503  -19.3057    0.0000 C   0  0
   12.1485  -17.6684    0.0000 C   0  0
   12.8571  -18.0736    0.0000 C   0  0
   12.8619  -18.8968    0.0000 C   0  0
   13.6463  -19.1466    0.0000 N   0  0
   14.1263  -18.4778    0.0000 C   0  0
   13.6385  -17.8147    0.0000 C   0  0
   13.8865  -17.0361    0.0000 O   0  0
   14.9435  -18.4729    0.0000 O   0  0
   13.9034  -19.9223    0.0000 C   0  0
   13.3601  -20.5328    0.0000 C   0  0
   13.6172  -21.3085    0.0000 N   0  0
   13.0767  -21.9173    0.0000 C   0  0
   13.3308  -22.6902    0.0000 C   0  0
   14.1306  -22.8597    0.0000 N   0  0
   14.6760  -22.2498    0.0000 C   0  0
   14.4215  -21.4705    0.0000 C   0  0
   14.3847  -23.6363    0.0000 N   0  0
   15.1844  -23.8046    0.0000 C   0  0
   15.7300  -23.1962    0.0000 C   0  0
   16.5287  -23.3682    0.0000 C   0  0
   17.0741  -22.7606    0.0000 C   0  0
   16.8201  -21.9829    0.0000 C   0  0
   16.0157  -21.8164    0.0000 C   0  0
   15.4739  -22.4253    0.0000 C   0  0
   10.7356  -17.6688    0.0000 O   0  0
   10.7354  -16.8516    0.0000 C   0  0
  1  2  2  0
  2  3  1  0
  3  6  2  0
  5  4  2  0
  4  1  1  0
  5  6  1  0
  6  7  1  0
  7  8  1  0
  8  9  1  0
  9  5  1  0
  9 10  2  0
  8 11  2  0
  7 12  1  0
 12 13  1  0
 13 14  1  0
 14 15  1  0
 14 19  1  0
 15 16  1  0
 16 17  1  0
 17 18  1  0
 18 19  1  0
 17 20  1  0
 20 21  1  0
 21 22  1  0
 22 23  2  0
 23 24  1  0
 24 25  2  0
 25 26  1  0
 26 27  2  0
 27 22  1  0
  1 28  1  0
 28 29  1  0
M  END
> <From> 
www.bindingDB.org

> <BindingDB Reactant_set_id>
50543813

> <Ligand InChI>
InChI=1S/C22H26N4O3/c1-29-18-7-8-20-19(15-18)21(27)22(28)26(20)14-11-24-9-12-25(13-10-24)23-16-17-5-3-2-4-6-17/h2-8,15,23H,9-14,16H2,1H3

> <Ligand InChI Key>
DDUOAWVMNNLZMV-UHFFFAOYSA-N

> <BindingDB MonomerID>
50208280

> <BindingDB Ligand Name>
CHEMBL3885446

> <Target Name Assigned by Curator or DataSource>
DNA gyrase subunit B

> <Target Source Organism According to Curator or DataSource>


> <Ki (nM)>


> <IC50 (nM)>
 92000

> <Kd (nM)>


> <EC50 (nM)>


> <kon (M-1-s-1)>


> <koff (s-1)>


> <pH>


> <Temp C>


> <Curation/DataSource>
ChEMBL

> <Article DOI>
10.1016/j.ejmech.2016.08.034

> <PMID>
27569197

> <PubChem AID>


> <Patent Number>


> <Authors>
Chaudhari, K; Surana, S; Jain, P; Patel, HM

> <Institution>
R. C. Patel Institute of Pharmaceutical Education and Research

> <Link to Ligand in BindingDB>
http://www.bindingdb.org/bind/chemsearch/marvin/MolStructure.jsp?monomerid=50208280

> <Link to Ligand-Target Pair in BindingDB>
http://www.bindingdb.org/jsp/dbsearch/PrimarySearch_ki.jsp?energyterm=kJ/mole&tag=pol&polymerid=50006452&target=DNA+gyrase+subunit+B&column=ki&startPg=0&Increment=50&submit=Search

> <Link to Ligand-Target Pair in BindingDB>
http://www.bindingdb.org/jsp/dbsearch/PrimarySearch_ki.jsp?energyterm=kJ/mole&tag=r21&monomerid=50208280&enzyme=DNA+gyrase+subunit+B&column=ki&startPg=0&Increment=50&submit=Search

> <Ligand HET ID in PDB>


> <PDB ID(s) for Ligand-Target Complex>


> <PubChem CID>
134131407

> <PubChem SID>
375981973

> <ChEBI ID of Ligand>


> <ChEMBL ID of Ligand>


> <DrugBank ID of Ligand>


> <IUPHAR_GRAC ID of Ligand>


> <KEGG ID of Ligand>


> <ZINC ID of Ligand>


> <Number of Protein Chains in Target (>1 implies a multichain complex)>
1

> <BindingDB Target Chain Sequence>
MAAQKNNAPKEYGADSITILEGLEAVRKRPGMYIGSTGERGLHHLIWEVVDNAVDEAMAGFATRVDVKIHADGSVEVRDDGRGIPVEMHATGMPTIDVVMTQLHAGGKFDGETYAVSGGLHGVGVSVVNALSTRLEATVLRDGYEWFQYYDRSVPGKLKQGGETKETGTTIRFWADPEIFETTDYNFETVARRLQEMAFLNKGLTIELTDERVTAEEVVDDVVKDTAEAPKTADEKAAEATGPSKVKHRVFHYPGGLVDYVKHINRTKTPIQQSIIDFDGKGPGHEVEIAMQWNAGYSESVHTFANTINTHEGGTHEEGFRAALTSVVNRYAKDKKLLKDKDPNLTGDDIREGLAAVISVKVAEPQFEGQTKTKLGNTEVKSFVQKICNEQLQHWFEANPAEAKTVVNKAVSSAQARIAARKARELVRRKSATDIGGLPGKLADCRSTDPSKSELYVVEGDSAGGSAKSGRDSMFQAILPLRGKIINVEKARIDRVLKNTEVQSIITALGTGIHDEFDISKLRYHKIVLMADADVDGQHISTLLLTLLFRFMKPLVENGHIFLAQPPLYKLKWQRSEPEFAYSDRERDGLLEAGRAAGKKINVDDGIQRYKGLGEMDAKELWETTMDPSVRVLRQVTLDDAAAADELFSILMGEDVEARRSFITRNAKDVRFLDV

> <PDB ID(s) of Target Chain>
4BAE

> <UniProt (SwissProt) Recommended Name of Target Chain>
DNA gyrase subunit B

> <UniProt (SwissProt) Entry Name of Target Chain>
GYRB_MYCSM

> <UniProt (SwissProt) Primary ID of Target Chain>
P0C559

> <UniProt (SwissProt) Secondary ID(s) of Target Chain>
P48355,Q59555

> <UniProt (SwissProt) Alternative ID(s) of Target Chain>


> <UniProt (TrEMBL) Submitted Name of Target Chain>


> <UniProt (TrEMBL) Entry Name of Target Chain>


> <UniProt (TrEMBL) Primary ID of Target Chain>


> <UniProt (TrEMBL) Secondary ID(s) of Target Chain>


> <UniProt (TrEMBL) Alternative ID(s) of Target Chain>


$$$$

  SciTegic12211701512D

 27 29  0  0  0  0            999 V2000
    9.8494  -11.1393    0.0000 O   0  0
    9.4408  -10.4302    0.0000 C   0  0
    8.6236  -10.4302    0.0000 C   0  0
    8.1435   -9.7711    0.0000 C   0  0
    7.3663  -10.0216    0.0000 C   0  0
    6.7071   -9.5415    0.0000 Cl  0  0
    7.3663  -10.8388    0.0000 C   0  0
    6.7071  -11.3190    0.0000 Cl  0  0
    8.1435  -11.0935    0.0000 N   0  0
    9.8494   -9.7211    0.0000 N   0  0
   10.6666   -9.7211    0.0000 C   0  0
   11.1467  -10.3844    0.0000 N   0  0
   11.9240  -10.1297    0.0000 C   0  0
   12.6331  -10.5383    0.0000 C   0  0
   13.3422  -10.1297    0.0000 C   0  0
   13.3422   -9.3125    0.0000 C   0  0
   14.0471   -8.9040    0.0000 N   0  0
   14.7562   -9.3125    0.0000 C   0  0
   14.7562  -10.1297    0.0000 C   0  0
   15.4612  -10.5383    0.0000 C   0  0
   16.1703  -10.1297    0.0000 C   0  0
   16.8793  -10.5383    0.0000 O   0  0
   16.1703   -9.3125    0.0000 O   0  0
   15.4612   -8.9040    0.0000 O   0  0
   12.6331   -8.9040    0.0000 C   0  0
   11.9240   -9.3125    0.0000 C   0  0
   11.1467   -9.0620    0.0000 S   0  0
  1  2  2  0
  2  3  1  0
  3  4  2  0
  4  5  1  0
  5  6  1  0
  5  7  2  0
  7  8  1  0
  7  9  1  0
  3  9  1  0
  2 10  1  0
 10 11  1  0
 11 12  2  0
 12 13  1  0
 13 14  2  0
 14 15  1  0
 15 16  2  0
 16 17  1  0
 17 18  1  0
 18 19  1  0
 19 20  1  0
 20 21  1  0
 21 22  1  0
 21 23  2  0
 18 24  2  0
 16 25  1  0
 25 26  2  0
 13 26  1  0
 26 27  1  0
 11 27  1  0
M  END
> <From> 
www.bindingDB.org

> <BindingDB Reactant_set_id>
50524130

> <Ligand InChI>
InChI=1S/C16H12Cl2N4O4S/c17-8-6-10(20-14(8)18)15(26)22-16-21-9-2-1-7(5-11(9)27-16)19-12(23)3-4-13(24)25/h1-2,5-6,20H,3-4H2,(H,19,23)(H,24,25)(H,21,22,26)

> <Ligand InChI Key>
OWOMROGMNUQIOW-UHFFFAOYSA-N

> <BindingDB MonomerID>
50198317

> <BindingDB Ligand Name>
CHEMBL3905948

> <Target Name Assigned by Curator or DataSource>
DNA gyrase

> <Target Source Organism According to Curator or DataSource>
Staphylococcus aureus

> <Ki (nM)>


> <IC50 (nM)>
 94000

> <Kd (nM)>


> <EC50 (nM)>


> <kon (M-1-s-1)>


> <koff (s-1)>


> <pH>


> <Temp C>


> <Curation/DataSource>
ChEMBL

> <Article DOI>
10.1021/acs.jmedchem.6b00864

> <PMID>
27541007

> <PubChem AID>


> <Patent Number>


> <Authors>
Gjorgjieva, M; Tomaic, T; Barancokova, M; Katsamakas, S; Ila, J; Tammela, P; Peterlin Maic, L; Kikelj, D

> <Institution>
University of Ljubljana

> <Link to Ligand in BindingDB>
http://www.bindingdb.org/bind/chemsearch/marvin/MolStructure.jsp?monomerid=50198317

> <Link to Ligand-Target Pair in BindingDB>
http://www.bindingdb.org/jsp/dbsearch/PrimarySearch_ki.jsp?energyterm=kJ/mole&tag=pol&polymerid=2626&target=DNA+gyrase&column=ki&startPg=0&Increment=50&submit=Search

> <Link to Ligand-Target Pair in BindingDB>
http://www.bindingdb.org/jsp/dbsearch/PrimarySearch_ki.jsp?energyterm=kJ/mole&tag=r21&monomerid=50198317&enzyme=DNA+gyrase&column=ki&startPg=0&Increment=50&submit=Search

> <Ligand HET ID in PDB>


> <PDB ID(s) for Ligand-Target Complex>


> <PubChem CID>
134135948

> <PubChem SID>
375978201

> <ChEBI ID of Ligand>


> <ChEMBL ID of Ligand>


> <DrugBank ID of Ligand>


> <IUPHAR_GRAC ID of Ligand>


> <KEGG ID of Ligand>


> <ZINC ID of Ligand>


> <Number of Protein Chains in Target (>1 implies a multichain complex)>
1

> <BindingDB Target Chain Sequence>
MVTALSDVNNTDNYGAGQIQVLEGLEAVRKRPGMYIGSTSERGLHHLVWEIVDNSIDEALAGYANQIEVVIEKDNWIKVTDNGRGIPVDIQEKMGRPAVEVILTVLHAGGKFGGGGYKVSGGLHGVGSSVVNALSQDLEVYVHRNETIYHQAYKKGVPQFDLKEVGTTDKTGTVIRFKADGEIFTETTVYNYETLQQRIRELAFLNKGIQITLRDERDEENVREDSYHYEGGIKSYVELLNENKEPIHDEPIYIHQSKDDIEVEIAIQYNSGYATNLLTYANNIHTYEGGTHEDGFKRALTRVLNSYGLSSKIMKEEKDRLSGEDTREGMTAIISIKHGDPQFEGQTKTKLGNSEVRQVVDKLFSEHFERFLYENPQVARTVVEKGIMAARARVAAKKAREVTRRKSALDVASLPGKLADCSSKSPEECEIFLVEGDSAGGSTKSGRDSRTQAILPLRGKILNVEKARLDRILNNNEIRQMITAFGTGIGGDFDLAKARYHKIVIMTDADVDGAHIRTLLLTFFYRFMRPLIEAGYVYIAQPPLYKLTQGKQKYYVYNDRELDKLKSELNPTPKWSIARYKGLGEMNADQLWETTMNPEHRALLQVKLEDAIEADQTFEMLMGDVVENRRQFIEDNAVYANLDF

> <PDB ID(s) of Target Chain>


> <UniProt (SwissProt) Recommended Name of Target Chain>
DNA gyrase subunit B

> <UniProt (SwissProt) Entry Name of Target Chain>
GYRB_STAAU

> <UniProt (SwissProt) Primary ID of Target Chain>
P0A0K8

> <UniProt (SwissProt) Secondary ID(s) of Target Chain>
P20832

> <UniProt (SwissProt) Alternative ID(s) of Target Chain>


> <UniProt (TrEMBL) Submitted Name of Target Chain>


> <UniProt (TrEMBL) Entry Name of Target Chain>


> <UniProt (TrEMBL) Primary ID of Target Chain>


> <UniProt (TrEMBL) Secondary ID(s) of Target Chain>


> <UniProt (TrEMBL) Alternative ID(s) of Target Chain>


$$$$

  Mrv0541 04241520572D          

 11 11  0  0  0  0            999 V2000
   20.6915   -2.5934    0.0000 C   0  0  0  0  0  0  0  0  0  0  0  0
   20.6903   -3.4186    0.0000 C   0  0  0  0  0  0  0  0  0  0  0  0
   21.4034   -3.8305    0.0000 C   0  0  0  0  0  0  0  0  0  0  0  0
   22.1179   -3.4181    0.0000 C   0  0  0  0  0  0  0  0  0  0  0  0
   22.1151   -2.5898    0.0000 C   0  0  0  0  0  0  0  0  0  0  0  0
   21.4015   -2.1816    0.0000 N   0  0  0  0  0  0  0  0  0  0  0  0
   19.9787   -2.1820    0.0000 N   0  0  0  0  0  0  0  0  0  0  0  0
   19.2661   -2.5937    0.0000 C   0  0  0  0  0  0  0  0  0  0  0  0
   18.5534   -2.1824    0.0000 N   0  0  0  0  0  0  0  0  0  0  0  0
   19.2663   -3.4166    0.0000 O   0  0  0  0  0  0  0  0  0  0  0  0
   17.8409   -2.5940    0.0000 C   0  0  0  0  0  0  0  0  0  0  0  0
  1  2  4  0  0  0  0
  2  3  4  0  0  0  0
  3  4  4  0  0  0  0
  4  5  4  0  0  0  0
  5  6  4  0  0  0  0
  6  1  4  0  0  0  0
  1  7  1  0  0  0  0
  7  8  1  0  0  0  0
  8  9  1  0  0  0  0
  8 10  2  0  0  0  0
  9 11  1  0  0  0  0
M  END
> <From> 
www.bindingDB.org

> <BindingDB Reactant_set_id>
50083244

> <Ligand InChI>
InChI=1S/C7H9N3O/c1-8-7(11)10-6-4-2-3-5-9-6/h2-5H,1H3,(H2,8,9,10,11)

> <Ligand InChI Key>
ZLAAPNRAYFZHNK-UHFFFAOYSA-N

> <BindingDB MonomerID>
50006453

> <BindingDB Ligand Name>
CHEMBL3235062

> <Target Name Assigned by Curator or DataSource>
DNA Gyrase Subunit B

> <Target Source Organism According to Curator or DataSource>
Staphylococcus aureus

> <Ki (nM)>


> <IC50 (nM)>
 100000

> <Kd (nM)>


> <EC50 (nM)>


> <kon (M-1-s-1)>


> <koff (s-1)>


> <pH>


> <Temp C>


> <Curation/DataSource>
ChEMBL

> <Article DOI>
10.1021/jm401208b

> <PMID>
24098982

> <PubChem AID>


> <Patent Number>


> <Authors>
Basarab, GS; Basarab, GS; Boriack-Sjodin, PA; Boriack-Sjodin, PA; Illingworth, R; Illingworth, R; Manchester, JI; Manchester, JI; Dangel, B; Dangel, B; Sriram, S; Sriram, S

> <Institution>
AstraZeneca R&amp;D Boston

> <Link to Ligand in BindingDB>
http://www.bindingdb.org/bind/chemsearch/marvin/MolStructure.jsp?monomerid=50006453

> <Link to Ligand-Target Pair in BindingDB>
http://www.bindingdb.org/jsp/dbsearch/PrimarySearch_ki.jsp?energyterm=kJ/mole&tag=pol&polymerid=2626&target=DNA+Gyrase+Subunit+B&column=ki&startPg=0&Increment=50&submit=Search

> <Link to Ligand-Target Pair in BindingDB>
http://www.bindingdb.org/jsp/dbsearch/PrimarySearch_ki.jsp?energyterm=kJ/mole&tag=r21&monomerid=50006453&enzyme=DNA+Gyrase+Subunit+B&column=ki&startPg=0&Increment=50&submit=Search

> <Ligand HET ID in PDB>


> <PDB ID(s) for Ligand-Target Complex>


> <PubChem CID>
12226930

> <PubChem SID>
242057006

> <ChEBI ID of Ligand>


> <ChEMBL ID of Ligand>
CHEMBL3235062

> <DrugBank ID of Ligand>


> <IUPHAR_GRAC ID of Ligand>


> <KEGG ID of Ligand>


> <ZINC ID of Ligand>


> <Number of Protein Chains in Target (>1 implies a multichain complex)>
1

> <BindingDB Target Chain Sequence>
MVTALSDVNNTDNYGAGQIQVLEGLEAVRKRPGMYIGSTSERGLHHLVWEIVDNSIDEALAGYANQIEVVIEKDNWIKVTDNGRGIPVDIQEKMGRPAVEVILTVLHAGGKFGGGGYKVSGGLHGVGSSVVNALSQDLEVYVHRNETIYHQAYKKGVPQFDLKEVGTTDKTGTVIRFKADGEIFTETTVYNYETLQQRIRELAFLNKGIQITLRDERDEENVREDSYHYEGGIKSYVELLNENKEPIHDEPIYIHQSKDDIEVEIAIQYNSGYATNLLTYANNIHTYEGGTHEDGFKRALTRVLNSYGLSSKIMKEEKDRLSGEDTREGMTAIISIKHGDPQFEGQTKTKLGNSEVRQVVDKLFSEHFERFLYENPQVARTVVEKGIMAARARVAAKKAREVTRRKSALDVASLPGKLADCSSKSPEECEIFLVEGDSAGGSTKSGRDSRTQAILPLRGKILNVEKARLDRILNNNEIRQMITAFGTGIGGDFDLAKARYHKIVIMTDADVDGAHIRTLLLTFFYRFMRPLIEAGYVYIAQPPLYKLTQGKQKYYVYNDRELDKLKSELNPTPKWSIARYKGLGEMNADQLWETTMNPEHRALLQVKLEDAIEADQTFEMLMGDVVENRRQFIEDNAVYANLDF

> <PDB ID(s) of Target Chain>


> <UniProt (SwissProt) Recommended Name of Target Chain>
DNA gyrase subunit B

> <UniProt (SwissProt) Entry Name of Target Chain>
GYRB_STAAU

> <UniProt (SwissProt) Primary ID of Target Chain>
P0A0K8

> <UniProt (SwissProt) Secondary ID(s) of Target Chain>
P20832

> <UniProt (SwissProt) Alternative ID(s) of Target Chain>


> <UniProt (TrEMBL) Submitted Name of Target Chain>


> <UniProt (TrEMBL) Entry Name of Target Chain>


> <UniProt (TrEMBL) Primary ID of Target Chain>


> <UniProt (TrEMBL) Secondary ID(s) of Target Chain>


> <UniProt (TrEMBL) Alternative ID(s) of Target Chain>


$$$$

  SciTegic12211722512D

 27 29  0  0  0  0            999 V2000
    7.1412   -4.7248    0.0000 O   0  0
    6.7327   -4.0199    0.0000 C   0  0
    7.1412   -3.3108    0.0000 C   0  0
    6.7327   -2.6017    0.0000 O   0  0
    7.1412   -1.8967    0.0000 C   0  0
    6.7327   -1.1876    0.0000 C   0  0
    7.9584   -3.3108    0.0000 O   0  0
    5.9155   -4.0199    0.0000 N   0  0
    5.5069   -4.7248    0.0000 C   0  0
    5.8413   -5.4721    0.0000 N   0  0
    5.2348   -6.0200    0.0000 C   0  0
    5.2348   -6.8371    0.0000 C   0  0
    4.5257   -7.2457    0.0000 C   0  0
    3.8166   -6.8371    0.0000 C   0  0
    3.1116   -7.2457    0.0000 N   0  0
    2.4026   -6.8371    0.0000 C   0  0
    2.4026   -6.0200    0.0000 C   0  0
    3.0658   -5.5398    0.0000 C   0  0
    2.8112   -4.7626    0.0000 C   0  0
    3.2913   -4.0993    0.0000 Br  0  0
    1.9940   -4.7626    0.0000 C   0  0
    1.5138   -4.0993    0.0000 Br  0  0
    1.7434   -5.5398    0.0000 N   0  0
    1.6935   -7.2457    0.0000 O   0  0
    3.8166   -6.0200    0.0000 C   0  0
    4.5257   -5.6114    0.0000 C   0  0
    4.6965   -4.8130    0.0000 S   0  0
  1  2  2  0
  2  3  1  0
  3  4  1  0
  4  5  1  0
  5  6  1  0
  3  7  2  0
  2  8  1  0
  8  9  1  0
  9 10  2  0
 10 11  1  0
 11 12  2  0
 12 13  1  0
 13 14  2  0
 14 15  1  0
 15 16  1  0
 16 17  1  0
 17 18  2  0
 18 19  1  0
 19 20  1  0
 19 21  2  0
 21 22  1  0
 21 23  1  0
 17 23  1  0
 16 24  2  0
 14 25  1  0
 25 26  2  0
 11 26  1  0
 26 27  1  0
  9 27  1  0
M  END
> <From> 
www.bindingDB.org

> <BindingDB Reactant_set_id>
50524142

> <Ligand InChI>
InChI=1S/C16H12Br2N4O4S/c1-2-26-15(25)14(24)22-16-21-9-4-3-7(5-11(9)27-16)19-13(23)10-6-8(17)12(18)20-10/h3-6,20H,2H2,1H3,(H,19,23)(H,21,22,24)

> <Ligand InChI Key>
ACPLKSCYERAVRJ-UHFFFAOYSA-N

> <BindingDB MonomerID>
50198322

> <BindingDB Ligand Name>
CHEMBL3936261

> <Target Name Assigned by Curator or DataSource>
DNA gyrase

> <Target Source Organism According to Curator or DataSource>
Staphylococcus aureus

> <Ki (nM)>


> <IC50 (nM)>
>100000

> <Kd (nM)>


> <EC50 (nM)>


> <kon (M-1-s-1)>


> <koff (s-1)>


> <pH>


> <Temp C>


> <Curation/DataSource>
ChEMBL

> <Article DOI>
10.1021/acs.jmedchem.6b00864

> <PMID>
27541007

> <PubChem AID>


> <Patent Number>


> <Authors>
Gjorgjieva, M; Tomaic, T; Barancokova, M; Katsamakas, S; Ila, J; Tammela, P; Peterlin Maic, L; Kikelj, D

> <Institution>
University of Ljubljana

> <Link to Ligand in BindingDB>
http://www.bindingdb.org/bind/chemsearch/marvin/MolStructure.jsp?monomerid=50198322

> <Link to Ligand-Target Pair in BindingDB>
http://www.bindingdb.org/jsp/dbsearch/PrimarySearch_ki.jsp?energyterm=kJ/mole&tag=pol&polymerid=2626&target=DNA+gyrase&column=ki&startPg=0&Increment=50&submit=Search

> <Link to Ligand-Target Pair in BindingDB>
http://www.bindingdb.org/jsp/dbsearch/PrimarySearch_ki.jsp?energyterm=kJ/mole&tag=r21&monomerid=50198322&enzyme=DNA+gyrase&column=ki&startPg=0&Increment=50&submit=Search

> <Ligand HET ID in PDB>


> <PDB ID(s) for Ligand-Target Complex>


> <PubChem CID>
134148692

> <PubChem SID>
375978206

> <ChEBI ID of Ligand>


> <ChEMBL ID of Ligand>


> <DrugBank ID of Ligand>


> <IUPHAR_GRAC ID of Ligand>


> <KEGG ID of Ligand>


> <ZINC ID of Ligand>


> <Number of Protein Chains in Target (>1 implies a multichain complex)>
1

> <BindingDB Target Chain Sequence>
MVTALSDVNNTDNYGAGQIQVLEGLEAVRKRPGMYIGSTSERGLHHLVWEIVDNSIDEALAGYANQIEVVIEKDNWIKVTDNGRGIPVDIQEKMGRPAVEVILTVLHAGGKFGGGGYKVSGGLHGVGSSVVNALSQDLEVYVHRNETIYHQAYKKGVPQFDLKEVGTTDKTGTVIRFKADGEIFTETTVYNYETLQQRIRELAFLNKGIQITLRDERDEENVREDSYHYEGGIKSYVELLNENKEPIHDEPIYIHQSKDDIEVEIAIQYNSGYATNLLTYANNIHTYEGGTHEDGFKRALTRVLNSYGLSSKIMKEEKDRLSGEDTREGMTAIISIKHGDPQFEGQTKTKLGNSEVRQVVDKLFSEHFERFLYENPQVARTVVEKGIMAARARVAAKKAREVTRRKSALDVASLPGKLADCSSKSPEECEIFLVEGDSAGGSTKSGRDSRTQAILPLRGKILNVEKARLDRILNNNEIRQMITAFGTGIGGDFDLAKARYHKIVIMTDADVDGAHIRTLLLTFFYRFMRPLIEAGYVYIAQPPLYKLTQGKQKYYVYNDRELDKLKSELNPTPKWSIARYKGLGEMNADQLWETTMNPEHRALLQVKLEDAIEADQTFEMLMGDVVENRRQFIEDNAVYANLDF

> <PDB ID(s) of Target Chain>


> <UniProt (SwissProt) Recommended Name of Target Chain>
DNA gyrase subunit B

> <UniProt (SwissProt) Entry Name of Target Chain>
GYRB_STAAU

> <UniProt (SwissProt) Primary ID of Target Chain>
P0A0K8

> <UniProt (SwissProt) Secondary ID(s) of Target Chain>
P20832

> <UniProt (SwissProt) Alternative ID(s) of Target Chain>


> <UniProt (TrEMBL) Submitted Name of Target Chain>


> <UniProt (TrEMBL) Entry Name of Target Chain>


> <UniProt (TrEMBL) Primary ID of Target Chain>


> <UniProt (TrEMBL) Secondary ID(s) of Target Chain>


> <UniProt (TrEMBL) Alternative ID(s) of Target Chain>


$$$$

  Mrv0541 11241413072D          

 33 37  0  0  0  0            999 V2000
    2.0350   -9.4700    0.0000 C   0  0  0  0  0  0  0  0  0  0  0  0
    2.0339  -10.2969    0.0000 C   0  0  0  0  0  0  0  0  0  0  0  0
    2.7483  -10.7096    0.0000 C   0  0  0  0  0  0  0  0  0  0  0  0
    2.7465   -9.0574    0.0000 C   0  0  0  0  0  0  0  0  0  0  0  0
    3.4615   -9.4663    0.0000 C   0  0  0  0  0  0  0  0  0  0  0  0
    3.4649  -10.2944    0.0000 C   0  0  0  0  0  0  0  0  0  0  0  0
    4.1797  -10.7032    0.0000 C   0  0  0  0  0  0  0  0  0  0  0  0
    4.8958  -10.2885    0.0000 C   0  0  0  0  0  0  0  0  0  0  0  0
    4.8923   -9.4605    0.0000 C   0  0  0  0  0  0  0  0  0  0  0  0
    4.1729   -9.0471    0.0000 N   0  0  0  0  0  0  0  0  0  0  0  0
    4.1684   -8.2225    0.0000 C   0  0  0  0  0  0  0  0  0  0  0  0
    4.8802   -7.8063    0.0000 C   0  0  0  0  0  0  0  0  0  0  0  0
    4.8757   -6.9818    0.0000 N   0  0  0  0  0  0  0  0  0  0  0  0
    5.6052   -9.0460    0.0000 O   0  0  0  0  0  0  0  0  0  0  0  0
    5.5908   -6.5649    0.0000 C   0  0  0  0  0  0  0  0  0  0  0  0
    5.5882   -5.7439    0.0000 C   0  0  0  0  0  0  0  0  0  0  0  0
    4.8737   -5.3317    0.0000 C   0  0  0  0  0  0  0  0  0  0  0  0
    4.1600   -5.7467    0.0000 C   0  0  0  0  0  0  0  0  0  0  0  0
    4.1609   -6.5739    0.0000 C   0  0  0  0  0  0  0  0  0  0  0  0
    4.8723   -4.5071    0.0000 N   0  0  0  0  0  0  0  0  0  0  0  0
    5.5856   -4.0936    0.0000 C   0  0  0  0  0  0  0  0  0  0  0  0
    5.5842   -3.2690    0.0000 C   0  0  0  0  0  0  0  0  0  0  0  0
    6.2963   -2.8592    0.0000 N   0  0  0  0  0  0  0  0  0  0  0  0
    6.2952   -2.0354    0.0000 C   0  0  0  0  0  0  0  0  0  0  0  0
    4.8687   -2.8639    0.0000 C   0  0  0  0  0  0  0  0  0  0  0  0
    4.8641   -2.0415    0.0000 C   0  0  0  0  0  0  0  0  0  0  0  0
    5.5825   -1.6266    0.0000 C   0  0  0  0  0  0  0  0  0  0  0  0
    5.5824   -0.8017    0.0000 O   0  0  0  0  0  0  0  0  0  0  0  0
    4.8657   -0.3853    0.0000 C   0  0  0  0  0  0  0  0  0  0  0  0
    4.1474   -0.8001    0.0000 C   0  0  0  0  0  0  0  0  0  0  0  0
    4.1457   -1.6313    0.0000 O   0  0  0  0  0  0  0  0  0  0  0  0
    1.3174   -9.0561    0.0000 C   0  0  0  0  0  0  0  0  0  0  0  0
    0.6032   -8.6439    0.0000 N   0  0  0  0  0  0  0  0  0  0  0  0
  1  2  2  0  0  0  0
  2  3  1  0  0  0  0
  3  6  2  0  0  0  0
  5  4  2  0  0  0  0
  4  1  1  0  0  0  0
  5  6  1  0  0  0  0
  5 10  1  0  0  0  0
  6  7  1  0  0  0  0
  7  8  2  0  0  0  0
  8  9  1  0  0  0  0
  9 10  1  0  0  0  0
 10 11  1  0  0  0  0
 11 12  1  0  0  0  0
 12 13  1  0  0  0  0
  9 14  2  0  0  0  0
 13 15  1  0  0  0  0
 13 19  1  0  0  0  0
 15 16  1  0  0  0  0
 16 17  1  0  0  0  0
 17 18  1  0  0  0  0
 18 19  1  0  0  0  0
 17 20  1  0  0  0  0
 20 21  1  0  0  0  0
 21 22  1  0  0  0  0
 22 23  2  0  0  0  0
 23 24  1  0  0  0  0
 24 27  2  0  0  0  0
 26 25  2  0  0  0  0
 25 22  1  0  0  0  0
 26 27  1  0  0  0  0
 26 31  1  0  0  0  0
 27 28  1  0  0  0  0
 28 29  1  0  0  0  0
 29 30  1  0  0  0  0
 30 31  1  0  0  0  0
 32 33  3  0  0  0  0
  1 32  1  0  0  0  0
M  END
> <From> 
www.bindingDB.org

> <BindingDB Reactant_set_id>
50102756

> <Ligand InChI>
InChI=1S/C25H27N5O3/c26-15-18-1-2-19-3-4-25(31)30(22(19)13-18)10-9-29-7-5-20(6-8-29)27-16-21-14-23-24(17-28-21)33-12-11-32-23/h1-4,13-14,17,20,27H,5-12,16H2

> <Ligand InChI Key>
SEYRFRYGJGGXBD-UHFFFAOYSA-N

> <BindingDB MonomerID>
50395400

> <BindingDB Ligand Name>
CHEMBL2165062

> <Target Name Assigned by Curator or DataSource>
DNA gyrase subunit B

> <Target Source Organism According to Curator or DataSource>


> <Ki (nM)>


> <IC50 (nM)>
>100000

> <Kd (nM)>


> <EC50 (nM)>


> <kon (M-1-s-1)>


> <koff (s-1)>


> <pH>


> <Temp C>


> <Curation/DataSource>
ChEMBL

> <Article DOI>
10.1021/jm500432n

> <PMID>
24809953

> <PubChem AID>


> <Patent Number>


> <Authors>
Hameed P, S; Patil, V; Solapure, S; Sharma, U; Madhavapeddi, P; Raichurkar, A; Chinnapattu, M; Manjrekar, P; Shanbhag, G; Puttur, J; Shinde, V; Menasinakai, S; Rudrapatana, S; Achar, V; Awasthy, D; Nandishaiah, R; Humnabadkar, V; Ghosh, A; Narayan, C; Ramya, VK; Kaur, P; Sharma, S; Werngren, J; Hoffner, S; Panduga, V; Kumar, CN; Reddy, J; Kumar K N, M; Ganguly, S; Bharath, S; Bheemarao, U; Mukherjee, K; Arora, U; Gaonkar, S; Coulson, M; Waterson, D; Sambandamurthy, VK; de Sousa, SM

> <Institution>
AstraZeneca

> <Link to Ligand in BindingDB>
http://www.bindingdb.org/bind/chemsearch/marvin/MolStructure.jsp?monomerid=50395400

> <Link to Ligand-Target Pair in BindingDB>
http://www.bindingdb.org/jsp/dbsearch/PrimarySearch_ki.jsp?energyterm=kJ/mole&tag=pol&polymerid=50006452&target=DNA+gyrase+subunit+B&column=ki&startPg=0&Increment=50&submit=Search

> <Link to Ligand-Target Pair in BindingDB>
http://www.bindingdb.org/jsp/dbsearch/PrimarySearch_ki.jsp?energyterm=kJ/mole&tag=r21&monomerid=50395400&enzyme=DNA+gyrase+subunit+B&column=ki&startPg=0&Increment=50&submit=Search

> <Ligand HET ID in PDB>


> <PDB ID(s) for Ligand-Target Complex>


> <PubChem CID>
15983304

> <PubChem SID>
163344424

> <ChEBI ID of Ligand>


> <ChEMBL ID of Ligand>
CHEMBL2165062

> <DrugBank ID of Ligand>


> <IUPHAR_GRAC ID of Ligand>


> <KEGG ID of Ligand>


> <ZINC ID of Ligand>
ZINC34845665

> <Number of Protein Chains in Target (>1 implies a multichain complex)>
1

> <BindingDB Target Chain Sequence>
MAAQKNNAPKEYGADSITILEGLEAVRKRPGMYIGSTGERGLHHLIWEVVDNAVDEAMAGFATRVDVKIHADGSVEVRDDGRGIPVEMHATGMPTIDVVMTQLHAGGKFDGETYAVSGGLHGVGVSVVNALSTRLEATVLRDGYEWFQYYDRSVPGKLKQGGETKETGTTIRFWADPEIFETTDYNFETVARRLQEMAFLNKGLTIELTDERVTAEEVVDDVVKDTAEAPKTADEKAAEATGPSKVKHRVFHYPGGLVDYVKHINRTKTPIQQSIIDFDGKGPGHEVEIAMQWNAGYSESVHTFANTINTHEGGTHEEGFRAALTSVVNRYAKDKKLLKDKDPNLTGDDIREGLAAVISVKVAEPQFEGQTKTKLGNTEVKSFVQKICNEQLQHWFEANPAEAKTVVNKAVSSAQARIAARKARELVRRKSATDIGGLPGKLADCRSTDPSKSELYVVEGDSAGGSAKSGRDSMFQAILPLRGKIINVEKARIDRVLKNTEVQSIITALGTGIHDEFDISKLRYHKIVLMADADVDGQHISTLLLTLLFRFMKPLVENGHIFLAQPPLYKLKWQRSEPEFAYSDRERDGLLEAGRAAGKKINVDDGIQRYKGLGEMDAKELWETTMDPSVRVLRQVTLDDAAAADELFSILMGEDVEARRSFITRNAKDVRFLDV

> <PDB ID(s) of Target Chain>
4BAE

> <UniProt (SwissProt) Recommended Name of Target Chain>
DNA gyrase subunit B

> <UniProt (SwissProt) Entry Name of Target Chain>
GYRB_MYCSM

> <UniProt (SwissProt) Primary ID of Target Chain>
P0C559

> <UniProt (SwissProt) Secondary ID(s) of Target Chain>
P48355,Q59555

> <UniProt (SwissProt) Alternative ID(s) of Target Chain>


> <UniProt (TrEMBL) Submitted Name of Target Chain>


> <UniProt (TrEMBL) Entry Name of Target Chain>


> <UniProt (TrEMBL) Primary ID of Target Chain>


> <UniProt (TrEMBL) Secondary ID(s) of Target Chain>


> <UniProt (TrEMBL) Alternative ID(s) of Target Chain>


$$$$

  SciTegic09261414532D

 34 38  0  0  0  0            999 V2000
    7.6169   -4.4869    0.0000 C   0  0
    7.6341   -3.6687    0.0000 C   0  0
    8.3506   -3.2733    0.0000 N   0  0
    8.3163   -4.9097    0.0000 C   0  0
    5.4561   -8.1263    0.0000 N   0  0
    6.1601   -8.5395    0.0000 C   0  0
    6.1500   -9.3608    0.0000 C   0  0
    5.4359   -9.7565    0.0000 C   0  0
    4.7320   -9.3391    0.0000 C   0  0
    4.0179   -9.7389    0.0000 C   0  0
    3.3180   -9.3216    0.0000 C   0  0
    3.3281   -8.5086    0.0000 C   0  0
    4.0380   -8.1088    0.0000 N   0  0
    4.7420   -8.5261    0.0000 C   0  0
    2.6241   -8.0913    0.0000 O   0  0
    6.8700   -8.1438    0.0000 O   0  0
    5.4662   -7.3092    0.0000 C   0  0
    6.1803   -6.9094    0.0000 C   0  0
    6.1904   -6.0923    0.0000 N   0  0
    5.4864   -5.6749    0.0000 C   0  0
    5.4965   -4.8578    0.0000 C   0  0
    6.2106   -4.4580    0.0000 C   0  0
    6.9105   -4.8753    0.0000 C   0  0
    6.9004   -5.6924    0.0000 C   0  0
    6.2187   -3.6407    0.0000 N   0  0
    6.9345   -3.2465    0.0000 C   0  0
    9.0485   -3.6957    0.0000 C   0  0
    9.0328   -4.5142    0.0000 C   0  0
    9.7326   -4.9353    0.0000 O   0  0
   10.4487   -4.5390    0.0000 C   0  0
   10.4606   -3.7174    0.0000 C   0  0
    9.7601   -3.3000    0.0000 N   0  0
    2.6335   -7.2742    0.0000 C   0  0
   11.1740   -3.3188    0.0000 O   0  0
  1  2  1  0
  2  3  2  0
  3 27  1  0
 28  4  1  0
  1  4  2  0
  5  6  1  0
  6  7  1  0
  7  8  2  0
  8  9  1  0
  9 10  1  0
 10 11  2  0
 11 12  1  0
 12 13  2  0
 13 14  1  0
  5 14  1  0
  9 14  2  0
 12 15  1  0
  6 16  2  0
 17 18  1  0
 19 20  1  0
 20 21  1  0
 21 22  1  0
 22 23  1  0
 23 24  1  0
 19 24  1  0
 22 25  1  0
 18 19  1  0
  5 17  1  0
 25 26  1  0
 26  2  1  0
 27 28  2  0
 28 29  1  0
 29 30  1  0
 30 31  1  0
 31 32  1  0
 32 27  1  0
 15 33  1  0
 31 34  2  0
M  END
> <From> 
www.bindingDB.org

> <BindingDB Reactant_set_id>
50102757

> <Ligand InChI>
InChI=1S/C24H28N6O4/c1-33-21-6-2-16-3-7-22(32)30(24(16)28-21)13-12-29-10-8-17(9-11-29)25-14-18-4-5-19-23(26-18)27-20(31)15-34-19/h2-7,17,25H,8-15H2,1H3,(H,26,27,31)

> <Ligand InChI Key>
NBGOQUKSSZOVOU-UHFFFAOYSA-N

> <BindingDB MonomerID>
50018288

> <BindingDB Ligand Name>
CHEMBL3290336

> <Target Name Assigned by Curator or DataSource>
DNA gyrase subunit B

> <Target Source Organism According to Curator or DataSource>


> <Ki (nM)>


> <IC50 (nM)>
>100000

> <Kd (nM)>


> <EC50 (nM)>


> <kon (M-1-s-1)>


> <koff (s-1)>


> <pH>


> <Temp C>


> <Curation/DataSource>
ChEMBL

> <Article DOI>
10.1021/jm500432n

> <PMID>
24809953

> <PubChem AID>


> <Patent Number>


> <Authors>
Hameed P, S; Patil, V; Solapure, S; Sharma, U; Madhavapeddi, P; Raichurkar, A; Chinnapattu, M; Manjrekar, P; Shanbhag, G; Puttur, J; Shinde, V; Menasinakai, S; Rudrapatana, S; Achar, V; Awasthy, D; Nandishaiah, R; Humnabadkar, V; Ghosh, A; Narayan, C; Ramya, VK; Kaur, P; Sharma, S; Werngren, J; Hoffner, S; Panduga, V; Kumar, CN; Reddy, J; Kumar K N, M; Ganguly, S; Bharath, S; Bheemarao, U; Mukherjee, K; Arora, U; Gaonkar, S; Coulson, M; Waterson, D; Sambandamurthy, VK; de Sousa, SM

> <Institution>
AstraZeneca

> <Link to Ligand in BindingDB>
http://www.bindingdb.org/bind/chemsearch/marvin/MolStructure.jsp?monomerid=50018288

> <Link to Ligand-Target Pair in BindingDB>
http://www.bindingdb.org/jsp/dbsearch/PrimarySearch_ki.jsp?energyterm=kJ/mole&tag=pol&polymerid=50006452&target=DNA+gyrase+subunit+B&column=ki&startPg=0&Increment=50&submit=Search

> <Link to Ligand-Target Pair in BindingDB>
http://www.bindingdb.org/jsp/dbsearch/PrimarySearch_ki.jsp?energyterm=kJ/mole&tag=r21&monomerid=50018288&enzyme=DNA+gyrase+subunit+B&column=ki&startPg=0&Increment=50&submit=Search

> <Ligand HET ID in PDB>


> <PDB ID(s) for Ligand-Target Complex>


> <PubChem CID>
71089192

> <PubChem SID>
103929444

> <ChEBI ID of Ligand>


> <ChEMBL ID of Ligand>
CHEMBL3290336

> <DrugBank ID of Ligand>


> <IUPHAR_GRAC ID of Ligand>


> <KEGG ID of Ligand>


> <ZINC ID of Ligand>
ZINC29404027

> <Number of Protein Chains in Target (>1 implies a multichain complex)>
1

> <BindingDB Target Chain Sequence>
MAAQKNNAPKEYGADSITILEGLEAVRKRPGMYIGSTGERGLHHLIWEVVDNAVDEAMAGFATRVDVKIHADGSVEVRDDGRGIPVEMHATGMPTIDVVMTQLHAGGKFDGETYAVSGGLHGVGVSVVNALSTRLEATVLRDGYEWFQYYDRSVPGKLKQGGETKETGTTIRFWADPEIFETTDYNFETVARRLQEMAFLNKGLTIELTDERVTAEEVVDDVVKDTAEAPKTADEKAAEATGPSKVKHRVFHYPGGLVDYVKHINRTKTPIQQSIIDFDGKGPGHEVEIAMQWNAGYSESVHTFANTINTHEGGTHEEGFRAALTSVVNRYAKDKKLLKDKDPNLTGDDIREGLAAVISVKVAEPQFEGQTKTKLGNTEVKSFVQKICNEQLQHWFEANPAEAKTVVNKAVSSAQARIAARKARELVRRKSATDIGGLPGKLADCRSTDPSKSELYVVEGDSAGGSAKSGRDSMFQAILPLRGKIINVEKARIDRVLKNTEVQSIITALGTGIHDEFDISKLRYHKIVLMADADVDGQHISTLLLTLLFRFMKPLVENGHIFLAQPPLYKLKWQRSEPEFAYSDRERDGLLEAGRAAGKKINVDDGIQRYKGLGEMDAKELWETTMDPSVRVLRQVTLDDAAAADELFSILMGEDVEARRSFITRNAKDVRFLDV

> <PDB ID(s) of Target Chain>
4BAE

> <UniProt (SwissProt) Recommended Name of Target Chain>
DNA gyrase subunit B

> <UniProt (SwissProt) Entry Name of Target Chain>
GYRB_MYCSM

> <UniProt (SwissProt) Primary ID of Target Chain>
P0C559

> <UniProt (SwissProt) Secondary ID(s) of Target Chain>
P48355,Q59555

> <UniProt (SwissProt) Alternative ID(s) of Target Chain>


> <UniProt (TrEMBL) Submitted Name of Target Chain>


> <UniProt (TrEMBL) Entry Name of Target Chain>


> <UniProt (TrEMBL) Primary ID of Target Chain>


> <UniProt (TrEMBL) Secondary ID(s) of Target Chain>


> <UniProt (TrEMBL) Alternative ID(s) of Target Chain>


$$$$

  SciTegic09261414532D

 34 38  0  0  0  0            999 V2000
    8.4506  -11.9985    0.0000 C   0  0
    8.4678  -11.1803    0.0000 C   0  0
    9.1843  -10.7848    0.0000 N   0  0
    9.1500  -12.4212    0.0000 C   0  0
    6.2898  -15.6379    0.0000 N   0  0
    6.9938  -16.0511    0.0000 C   0  0
    6.9837  -16.8723    0.0000 C   0  0
    6.2696  -17.2680    0.0000 C   0  0
    5.5657  -16.8507    0.0000 C   0  0
    4.8516  -17.2505    0.0000 C   0  0
    4.1517  -16.8332    0.0000 C   0  0
    4.1618  -16.0202    0.0000 C   0  0
    4.8717  -15.6203    0.0000 C   0  0
    5.5757  -16.0377    0.0000 C   0  0
    7.7037  -15.6554    0.0000 O   0  0
    6.2999  -14.8207    0.0000 C   0  0
    7.0140  -14.4210    0.0000 C   0  0
    7.0241  -13.6038    0.0000 N   0  0
    6.3201  -13.1865    0.0000 C   0  0
    6.3302  -12.3694    0.0000 C   0  0
    7.0443  -11.9696    0.0000 C   0  0
    7.7442  -12.3868    0.0000 C   0  0
    7.7341  -13.2040    0.0000 C   0  0
    7.0524  -11.1523    0.0000 N   0  0
    7.7682  -10.7580    0.0000 C   0  0
    9.8822  -11.2073    0.0000 C   0  0
    9.8665  -12.0258    0.0000 C   0  0
   10.5663  -12.4469    0.0000 O   0  0
   11.2824  -12.0506    0.0000 C   0  0
   11.2943  -11.2289    0.0000 C   0  0
   10.5938  -10.8115    0.0000 N   0  0
   12.0077  -10.8303    0.0000 O   0  0
    3.4537  -15.6037    0.0000 C   0  0
    2.7507  -15.1869    0.0000 N   0  0
  1  2  1  0
  2  3  2  0
  3 26  1  0
 27  4  1  0
  1  4  2  0
  5  6  1  0
  6  7  1  0
  7  8  2  0
  8  9  1  0
  9 10  1  0
 10 11  2  0
 11 12  1  0
 12 13  2  0
 13 14  1  0
  5 14  1  0
  9 14  2  0
  6 15  2  0
 16 17  1  0
 18 19  1  0
 19 20  1  0
 20 21  1  0
 21 22  1  0
 22 23  1  0
 18 23  1  0
 21 24  1  0
 17 18  1  0
  5 16  1  0
 24 25  1  0
 25  2  1  0
 26 27  2  0
 27 28  1  0
 28 29  1  0
 29 30  1  0
 30 31  1  0
 31 26  1  0
 30 32  2  0
 33 34  3  0
 12 33  1  0
M  END
> <From> 
www.bindingDB.org

> <BindingDB Reactant_set_id>
50102758

> <Ligand InChI>
InChI=1S/C25H26N6O3/c26-14-17-1-2-18-3-6-24(33)31(21(18)13-17)12-11-30-9-7-19(8-10-30)27-15-20-4-5-22-25(28-20)29-23(32)16-34-22/h1-6,13,19,27H,7-12,15-16H2,(H,28,29,32)

> <Ligand InChI Key>
ZACXSFNHRGSGEK-UHFFFAOYSA-N

> <BindingDB MonomerID>
50018289

> <BindingDB Ligand Name>
CHEMBL3290337

> <Target Name Assigned by Curator or DataSource>
DNA gyrase subunit B

> <Target Source Organism According to Curator or DataSource>


> <Ki (nM)>


> <IC50 (nM)>
>100000

> <Kd (nM)>


> <EC50 (nM)>


> <kon (M-1-s-1)>


> <koff (s-1)>


> <pH>


> <Temp C>


> <Curation/DataSource>
ChEMBL

> <Article DOI>
10.1021/jm500432n

> <PMID>
24809953

> <PubChem AID>


> <Patent Number>


> <Authors>
Hameed P, S; Patil, V; Solapure, S; Sharma, U; Madhavapeddi, P; Raichurkar, A; Chinnapattu, M; Manjrekar, P; Shanbhag, G; Puttur, J; Shinde, V; Menasinakai, S; Rudrapatana, S; Achar, V; Awasthy, D; Nandishaiah, R; Humnabadkar, V; Ghosh, A; Narayan, C; Ramya, VK; Kaur, P; Sharma, S; Werngren, J; Hoffner, S; Panduga, V; Kumar, CN; Reddy, J; Kumar K N, M; Ganguly, S; Bharath, S; Bheemarao, U; Mukherjee, K; Arora, U; Gaonkar, S; Coulson, M; Waterson, D; Sambandamurthy, VK; de Sousa, SM

> <Institution>
AstraZeneca

> <Link to Ligand in BindingDB>
http://www.bindingdb.org/bind/chemsearch/marvin/MolStructure.jsp?monomerid=50018289

> <Link to Ligand-Target Pair in BindingDB>
http://www.bindingdb.org/jsp/dbsearch/PrimarySearch_ki.jsp?energyterm=kJ/mole&tag=pol&polymerid=50006452&target=DNA+gyrase+subunit+B&column=ki&startPg=0&Increment=50&submit=Search

> <Link to Ligand-Target Pair in BindingDB>
http://www.bindingdb.org/jsp/dbsearch/PrimarySearch_ki.jsp?energyterm=kJ/mole&tag=r21&monomerid=50018289&enzyme=DNA+gyrase+subunit+B&column=ki&startPg=0&Increment=50&submit=Search

> <Ligand HET ID in PDB>


> <PDB ID(s) for Ligand-Target Complex>


> <PubChem CID>
15983305

> <PubChem SID>
103929445

> <ChEBI ID of Ligand>


> <ChEMBL ID of Ligand>
CHEMBL3290337

> <DrugBank ID of Ligand>


> <IUPHAR_GRAC ID of Ligand>


> <KEGG ID of Ligand>


> <ZINC ID of Ligand>
ZINC29408045

> <Number of Protein Chains in Target (>1 implies a multichain complex)>
1

> <BindingDB Target Chain Sequence>
MAAQKNNAPKEYGADSITILEGLEAVRKRPGMYIGSTGERGLHHLIWEVVDNAVDEAMAGFATRVDVKIHADGSVEVRDDGRGIPVEMHATGMPTIDVVMTQLHAGGKFDGETYAVSGGLHGVGVSVVNALSTRLEATVLRDGYEWFQYYDRSVPGKLKQGGETKETGTTIRFWADPEIFETTDYNFETVARRLQEMAFLNKGLTIELTDERVTAEEVVDDVVKDTAEAPKTADEKAAEATGPSKVKHRVFHYPGGLVDYVKHINRTKTPIQQSIIDFDGKGPGHEVEIAMQWNAGYSESVHTFANTINTHEGGTHEEGFRAALTSVVNRYAKDKKLLKDKDPNLTGDDIREGLAAVISVKVAEPQFEGQTKTKLGNTEVKSFVQKICNEQLQHWFEANPAEAKTVVNKAVSSAQARIAARKARELVRRKSATDIGGLPGKLADCRSTDPSKSELYVVEGDSAGGSAKSGRDSMFQAILPLRGKIINVEKARIDRVLKNTEVQSIITALGTGIHDEFDISKLRYHKIVLMADADVDGQHISTLLLTLLFRFMKPLVENGHIFLAQPPLYKLKWQRSEPEFAYSDRERDGLLEAGRAAGKKINVDDGIQRYKGLGEMDAKELWETTMDPSVRVLRQVTLDDAAAADELFSILMGEDVEARRSFITRNAKDVRFLDV

> <PDB ID(s) of Target Chain>
4BAE

> <UniProt (SwissProt) Recommended Name of Target Chain>
DNA gyrase subunit B

> <UniProt (SwissProt) Entry Name of Target Chain>
GYRB_MYCSM

> <UniProt (SwissProt) Primary ID of Target Chain>
P0C559

> <UniProt (SwissProt) Secondary ID(s) of Target Chain>
P48355,Q59555

> <UniProt (SwissProt) Alternative ID(s) of Target Chain>


> <UniProt (TrEMBL) Submitted Name of Target Chain>


> <UniProt (TrEMBL) Entry Name of Target Chain>


> <UniProt (TrEMBL) Primary ID of Target Chain>


> <UniProt (TrEMBL) Secondary ID(s) of Target Chain>


> <UniProt (TrEMBL) Alternative ID(s) of Target Chain>


$$$$

  SciTegic09261414532D

 32 35  0  0  0  0            999 V2000
   26.2946   -7.5432    0.0000 N   0  0
   25.8860   -6.8341    0.0000 C   0  0
   26.2946   -6.1250    0.0000 C   0  0
   27.1118   -6.1250    0.0000 C   0  0
   27.5204   -6.8341    0.0000 C   0  0
   27.1118   -7.5432    0.0000 C   0  0
   20.1656   -6.8333    0.0000 N   0  0
   19.7612   -7.5424    0.0000 C   0  0
   18.9399   -7.5424    0.0000 C   0  0
   18.5354   -6.8333    0.0000 C   0  0
   18.9440   -6.1242    0.0000 C   0  0
   18.5354   -5.4151    0.0000 C   0  0
   18.9440   -4.7102    0.0000 C   0  0
   19.7570   -4.7102    0.0000 C   0  0
   20.1656   -5.4151    0.0000 C   0  0
   19.7570   -6.1242    0.0000 C   0  0
   20.1656   -4.0011    0.0000 C   0  0
   20.5742   -3.2961    0.0000 N   0  0
   20.1656   -8.2474    0.0000 O   0  0
   20.9828   -6.8333    0.0000 C   0  0
   21.3914   -7.5424    0.0000 C   0  0
   22.2086   -7.5424    0.0000 N   0  0
   22.6172   -6.8333    0.0000 C   0  0
   23.4344   -6.8333    0.0000 C   0  0
   23.8430   -7.5424    0.0000 C   0  0
   23.4344   -8.2474    0.0000 C   0  0
   22.6172   -8.2474    0.0000 C   0  0
   24.6602   -7.5424    0.0000 N   0  0
   25.0688   -6.8347    0.0000 C   0  0
   27.5207   -8.2507    0.0000 C   0  0
   28.3376   -6.8302    0.0000 C   0  0
   29.1547   -6.8302    0.0000 N   0  0
  1  2  1  0
  2  3  2  0
  3  4  1  0
  4  5  2  0
  5  6  1  0
  1  6  2  0
  7  8  1  0
  8  9  1  0
  9 10  2  0
 10 11  1  0
 11 12  1  0
 12 13  2  0
 13 14  1  0
 14 15  2  0
 15 16  1  0
  7 16  1  0
 11 16  2  0
 17 18  3  0
 14 17  1  0
  8 19  2  0
 20 21  1  0
 22 23  1  0
 23 24  1  0
 24 25  1  0
 25 26  1  0
 26 27  1  0
 22 27  1  0
 25 28  1  0
 21 22  1  0
  7 20  1  0
 28 29  1  0
 29  2  1  0
  6 30  1  0
 31 32  3  0
  5 31  1  0
M  END
> <From> 
www.bindingDB.org

> <BindingDB Reactant_set_id>
50102759

> <Ligand InChI>
InChI=1S/C25H26N6O/c1-18-21(16-27)4-6-23(29-18)17-28-22-8-10-30(11-9-22)12-13-31-24-14-19(15-26)2-3-20(24)5-7-25(31)32/h2-7,14,22,28H,8-13,17H2,1H3

> <Ligand InChI Key>
IKUSSXYCSOMLNJ-UHFFFAOYSA-N

> <BindingDB MonomerID>
50018290

> <BindingDB Ligand Name>
CHEMBL3290338

> <Target Name Assigned by Curator or DataSource>
DNA gyrase subunit B

> <Target Source Organism According to Curator or DataSource>


> <Ki (nM)>


> <IC50 (nM)>
>100000

> <Kd (nM)>


> <EC50 (nM)>


> <kon (M-1-s-1)>


> <koff (s-1)>


> <pH>


> <Temp C>


> <Curation/DataSource>
ChEMBL

> <Article DOI>
10.1021/jm500432n

> <PMID>
24809953

> <PubChem AID>


> <Patent Number>


> <Authors>
Hameed P, S; Patil, V; Solapure, S; Sharma, U; Madhavapeddi, P; Raichurkar, A; Chinnapattu, M; Manjrekar, P; Shanbhag, G; Puttur, J; Shinde, V; Menasinakai, S; Rudrapatana, S; Achar, V; Awasthy, D; Nandishaiah, R; Humnabadkar, V; Ghosh, A; Narayan, C; Ramya, VK; Kaur, P; Sharma, S; Werngren, J; Hoffner, S; Panduga, V; Kumar, CN; Reddy, J; Kumar K N, M; Ganguly, S; Bharath, S; Bheemarao, U; Mukherjee, K; Arora, U; Gaonkar, S; Coulson, M; Waterson, D; Sambandamurthy, VK; de Sousa, SM

> <Institution>
AstraZeneca

> <Link to Ligand in BindingDB>
http://www.bindingdb.org/bind/chemsearch/marvin/MolStructure.jsp?monomerid=50018290

> <Link to Ligand-Target Pair in BindingDB>
http://www.bindingdb.org/jsp/dbsearch/PrimarySearch_ki.jsp?energyterm=kJ/mole&tag=pol&polymerid=50006452&target=DNA+gyrase+subunit+B&column=ki&startPg=0&Increment=50&submit=Search

> <Link to Ligand-Target Pair in BindingDB>
http://www.bindingdb.org/jsp/dbsearch/PrimarySearch_ki.jsp?energyterm=kJ/mole&tag=r21&monomerid=50018290&enzyme=DNA+gyrase+subunit+B&column=ki&startPg=0&Increment=50&submit=Search

> <Ligand HET ID in PDB>


> <PDB ID(s) for Ligand-Target Complex>


> <PubChem CID>
90644097

> <PubChem SID>
103929446

> <ChEBI ID of Ligand>


> <ChEMBL ID of Ligand>
CHEMBL3290338

> <DrugBank ID of Ligand>


> <IUPHAR_GRAC ID of Ligand>


> <KEGG ID of Ligand>


> <ZINC ID of Ligand>
ZINC29407758

> <Number of Protein Chains in Target (>1 implies a multichain complex)>
1

> <BindingDB Target Chain Sequence>
MAAQKNNAPKEYGADSITILEGLEAVRKRPGMYIGSTGERGLHHLIWEVVDNAVDEAMAGFATRVDVKIHADGSVEVRDDGRGIPVEMHATGMPTIDVVMTQLHAGGKFDGETYAVSGGLHGVGVSVVNALSTRLEATVLRDGYEWFQYYDRSVPGKLKQGGETKETGTTIRFWADPEIFETTDYNFETVARRLQEMAFLNKGLTIELTDERVTAEEVVDDVVKDTAEAPKTADEKAAEATGPSKVKHRVFHYPGGLVDYVKHINRTKTPIQQSIIDFDGKGPGHEVEIAMQWNAGYSESVHTFANTINTHEGGTHEEGFRAALTSVVNRYAKDKKLLKDKDPNLTGDDIREGLAAVISVKVAEPQFEGQTKTKLGNTEVKSFVQKICNEQLQHWFEANPAEAKTVVNKAVSSAQARIAARKARELVRRKSATDIGGLPGKLADCRSTDPSKSELYVVEGDSAGGSAKSGRDSMFQAILPLRGKIINVEKARIDRVLKNTEVQSIITALGTGIHDEFDISKLRYHKIVLMADADVDGQHISTLLLTLLFRFMKPLVENGHIFLAQPPLYKLKWQRSEPEFAYSDRERDGLLEAGRAAGKKINVDDGIQRYKGLGEMDAKELWETTMDPSVRVLRQVTLDDAAAADELFSILMGEDVEARRSFITRNAKDVRFLDV

> <PDB ID(s) of Target Chain>
4BAE

> <UniProt (SwissProt) Recommended Name of Target Chain>
DNA gyrase subunit B

> <UniProt (SwissProt) Entry Name of Target Chain>
GYRB_MYCSM

> <UniProt (SwissProt) Primary ID of Target Chain>
P0C559

> <UniProt (SwissProt) Secondary ID(s) of Target Chain>
P48355,Q59555

> <UniProt (SwissProt) Alternative ID(s) of Target Chain>


> <UniProt (TrEMBL) Submitted Name of Target Chain>


> <UniProt (TrEMBL) Entry Name of Target Chain>


> <UniProt (TrEMBL) Primary ID of Target Chain>


> <UniProt (TrEMBL) Secondary ID(s) of Target Chain>


> <UniProt (TrEMBL) Alternative ID(s) of Target Chain>


$$$$

  SciTegic09261414532D

 32 35  0  0  0  0            999 V2000
   21.9032  -15.8802    0.0000 C   0  0
   21.4946  -15.1711    0.0000 C   0  0
   21.9032  -14.4620    0.0000 C   0  0
   22.7204  -14.4620    0.0000 C   0  0
   23.1290  -15.1711    0.0000 C   0  0
   22.7204  -15.8802    0.0000 N   0  0
   15.7743  -15.1703    0.0000 N   0  0
   15.3698  -15.8794    0.0000 C   0  0
   14.5485  -15.8794    0.0000 C   0  0
   14.1440  -15.1703    0.0000 C   0  0
   14.5526  -14.4612    0.0000 C   0  0
   14.1440  -13.7521    0.0000 C   0  0
   14.5526  -13.0472    0.0000 C   0  0
   15.3657  -13.0472    0.0000 C   0  0
   15.7743  -13.7522    0.0000 C   0  0
   15.3657  -14.4612    0.0000 C   0  0
   15.7743  -12.3381    0.0000 C   0  0
   16.1829  -11.6331    0.0000 N   0  0
   15.7743  -16.5844    0.0000 O   0  0
   16.5915  -15.1703    0.0000 C   0  0
   17.0001  -15.8794    0.0000 C   0  0
   17.8172  -15.8794    0.0000 N   0  0
   18.2258  -15.1703    0.0000 C   0  0
   19.0430  -15.1703    0.0000 C   0  0
   19.4516  -15.8794    0.0000 C   0  0
   19.0430  -16.5844    0.0000 C   0  0
   18.2258  -16.5844    0.0000 C   0  0
   20.2688  -15.8794    0.0000 N   0  0
   20.6774  -15.1717    0.0000 C   0  0
   23.9462  -15.1711    0.0000 C   0  0
   23.1267  -13.7534    0.0000 C   0  0
   23.5356  -13.0458    0.0000 N   0  0
  1  2  1  0
  2  3  2  0
  3  4  1  0
  4  5  2  0
  5  6  1  0
  1  6  2  0
  7  8  1  0
  8  9  1  0
  9 10  2  0
 10 11  1  0
 11 12  1  0
 12 13  2  0
 13 14  1  0
 14 15  2  0
 15 16  1  0
  7 16  1  0
 11 16  2  0
 17 18  3  0
 14 17  1  0
  8 19  2  0
 20 21  1  0
 22 23  1  0
 23 24  1  0
 24 25  1  0
 25 26  1  0
 26 27  1  0
 22 27  1  0
 25 28  1  0
 21 22  1  0
  7 20  1  0
 28 29  1  0
 29  2  1  0
  5 30  1  0
 31 32  3  0
  4 31  1  0
M  END
> <From> 
www.bindingDB.org

> <BindingDB Reactant_set_id>
50102760

> <Ligand InChI>
InChI=1S/C25H26N6O/c1-18-22(15-27)12-20(16-28-18)17-29-23-6-8-30(9-7-23)10-11-31-24-13-19(14-26)2-3-21(24)4-5-25(31)32/h2-5,12-13,16,23,29H,6-11,17H2,1H3

> <Ligand InChI Key>
PNPDBMVLOYDSJD-UHFFFAOYSA-N

> <BindingDB MonomerID>
50018407

> <BindingDB Ligand Name>
CHEMBL3290339

> <Target Name Assigned by Curator or DataSource>
DNA gyrase subunit B

> <Target Source Organism According to Curator or DataSource>


> <Ki (nM)>


> <IC50 (nM)>
>100000

> <Kd (nM)>


> <EC50 (nM)>


> <kon (M-1-s-1)>


> <koff (s-1)>


> <pH>


> <Temp C>


> <Curation/DataSource>
ChEMBL

> <Article DOI>
10.1021/jm500432n

> <PMID>
24809953

> <PubChem AID>


> <Patent Number>


> <Authors>
Hameed P, S; Patil, V; Solapure, S; Sharma, U; Madhavapeddi, P; Raichurkar, A; Chinnapattu, M; Manjrekar, P; Shanbhag, G; Puttur, J; Shinde, V; Menasinakai, S; Rudrapatana, S; Achar, V; Awasthy, D; Nandishaiah, R; Humnabadkar, V; Ghosh, A; Narayan, C; Ramya, VK; Kaur, P; Sharma, S; Werngren, J; Hoffner, S; Panduga, V; Kumar, CN; Reddy, J; Kumar K N, M; Ganguly, S; Bharath, S; Bheemarao, U; Mukherjee, K; Arora, U; Gaonkar, S; Coulson, M; Waterson, D; Sambandamurthy, VK; de Sousa, SM

> <Institution>
AstraZeneca

> <Link to Ligand in BindingDB>
http://www.bindingdb.org/bind/chemsearch/marvin/MolStructure.jsp?monomerid=50018407

> <Link to Ligand-Target Pair in BindingDB>
http://www.bindingdb.org/jsp/dbsearch/PrimarySearch_ki.jsp?energyterm=kJ/mole&tag=pol&polymerid=50006452&target=DNA+gyrase+subunit+B&column=ki&startPg=0&Increment=50&submit=Search

> <Link to Ligand-Target Pair in BindingDB>
http://www.bindingdb.org/jsp/dbsearch/PrimarySearch_ki.jsp?energyterm=kJ/mole&tag=r21&monomerid=50018407&enzyme=DNA+gyrase+subunit+B&column=ki&startPg=0&Increment=50&submit=Search

> <Ligand HET ID in PDB>


> <PDB ID(s) for Ligand-Target Complex>


> <PubChem CID>
90644098

> <PubChem SID>
103929563

> <ChEBI ID of Ligand>


> <ChEMBL ID of Ligand>
CHEMBL3290339

> <DrugBank ID of Ligand>


> <IUPHAR_GRAC ID of Ligand>


> <KEGG ID of Ligand>


> <ZINC ID of Ligand>
ZINC49590023

> <Number of Protein Chains in Target (>1 implies a multichain complex)>
1

> <BindingDB Target Chain Sequence>
MAAQKNNAPKEYGADSITILEGLEAVRKRPGMYIGSTGERGLHHLIWEVVDNAVDEAMAGFATRVDVKIHADGSVEVRDDGRGIPVEMHATGMPTIDVVMTQLHAGGKFDGETYAVSGGLHGVGVSVVNALSTRLEATVLRDGYEWFQYYDRSVPGKLKQGGETKETGTTIRFWADPEIFETTDYNFETVARRLQEMAFLNKGLTIELTDERVTAEEVVDDVVKDTAEAPKTADEKAAEATGPSKVKHRVFHYPGGLVDYVKHINRTKTPIQQSIIDFDGKGPGHEVEIAMQWNAGYSESVHTFANTINTHEGGTHEEGFRAALTSVVNRYAKDKKLLKDKDPNLTGDDIREGLAAVISVKVAEPQFEGQTKTKLGNTEVKSFVQKICNEQLQHWFEANPAEAKTVVNKAVSSAQARIAARKARELVRRKSATDIGGLPGKLADCRSTDPSKSELYVVEGDSAGGSAKSGRDSMFQAILPLRGKIINVEKARIDRVLKNTEVQSIITALGTGIHDEFDISKLRYHKIVLMADADVDGQHISTLLLTLLFRFMKPLVENGHIFLAQPPLYKLKWQRSEPEFAYSDRERDGLLEAGRAAGKKINVDDGIQRYKGLGEMDAKELWETTMDPSVRVLRQVTLDDAAAADELFSILMGEDVEARRSFITRNAKDVRFLDV

> <PDB ID(s) of Target Chain>
4BAE

> <UniProt (SwissProt) Recommended Name of Target Chain>
DNA gyrase subunit B

> <UniProt (SwissProt) Entry Name of Target Chain>
GYRB_MYCSM

> <UniProt (SwissProt) Primary ID of Target Chain>
P0C559

> <UniProt (SwissProt) Secondary ID(s) of Target Chain>
P48355,Q59555

> <UniProt (SwissProt) Alternative ID(s) of Target Chain>


> <UniProt (TrEMBL) Submitted Name of Target Chain>


> <UniProt (TrEMBL) Entry Name of Target Chain>


> <UniProt (TrEMBL) Primary ID of Target Chain>


> <UniProt (TrEMBL) Secondary ID(s) of Target Chain>


> <UniProt (TrEMBL) Alternative ID(s) of Target Chain>


$$$$

  SciTegic02271514512D

 32 36  0  0  0  0            999 V2000
    1.3812   -5.0558    0.0000 C   0  0
    1.3801   -5.8754    0.0000 C   0  0
    2.0881   -6.2843    0.0000 N   0  0
    2.0863   -4.6470    0.0000 C   0  0
    2.7949   -5.0522    0.0000 C   0  0
    2.7957   -5.8712    0.0000 C   0  0
    3.5042   -6.2783    0.0000 C   0  0
    4.2125   -5.8675    0.0000 C   0  0
    4.2078   -5.0453    0.0000 C   0  0
    3.4987   -4.6420    0.0000 N   0  0
    4.9130   -4.6325    0.0000 O   0  0
    3.4943   -3.8248    0.0000 C   0  0
    4.1998   -3.4125    0.0000 C   0  0
    4.1955   -2.5953    0.0000 N   0  0
    4.9048   -2.1859    0.0000 C   0  0
    4.9024   -1.3723    0.0000 C   0  0
    4.1944   -0.9636    0.0000 C   0  0
    3.4870   -1.3747    0.0000 C   0  0
    3.4878   -2.1945    0.0000 C   0  0
    0.6734   -4.6474    0.0000 O   0  0
    0.6732   -3.8302    0.0000 C   0  0
    4.1931   -0.1464    0.0000 C   0  0
    4.8550    0.3355    0.0000 C   0  0
    4.6013    1.1106    0.0000 N   0  0
    3.5328    0.3376    0.0000 C   0  0
    3.7849    1.1074    0.0000 C   0  0
    3.2413    1.7094    0.0000 C   0  0
    2.4456    1.5405    0.0000 C   0  0
    2.1964    0.7666    0.0000 C   0  0
    2.7416    0.1612    0.0000 C   0  0
    1.3971    0.5888    0.0000 C   0  0
    0.5985    0.4156    0.0000 N   0  0
  1  2  2  0
  2  3  1  0
  3  6  2  0
  5  4  2  0
  4  1  1  0
  5  6  1  0
  6  7  1  0
  7  8  2  0
  8  9  1  0
  9 10  1  0
 10  5  1  0
  9 11  2  0
 10 12  1  0
 12 13  1  0
 13 14  1  0
 14 15  1  0
 14 19  1  0
 15 16  1  0
 16 17  1  0
 17 18  1  0
 18 19  1  0
  1 20  1  0
 20 21  1  0
 17 22  1  0
 22 23  2  0
 23 24  1  0
 24 26  1  0
 25 22  1  0
 25 26  2  0
 26 27  1  0
 27 28  2  0
 28 29  1  0
 29 30  2  0
 30 25  1  0
 31 32  3  0
 29 31  1  0
M  END
> <From> 
www.bindingDB.org

> <BindingDB Reactant_set_id>
50284318

> <Ligand InChI>
InChI=1S/C25H25N5O2/c1-32-19-13-24-23(27-15-19)4-5-25(31)30(24)11-10-29-8-6-18(7-9-29)21-16-28-22-3-2-17(14-26)12-20(21)22/h2-5,12-13,15-16,18,28H,6-11H2,1H3

> <Ligand InChI Key>
GGGLLOKMKRUHMK-UHFFFAOYSA-N

> <BindingDB MonomerID>
50054797

> <BindingDB Ligand Name>
CHEMBL3319003

> <Target Name Assigned by Curator or DataSource>
DNA gyrase subunit B

> <Target Source Organism According to Curator or DataSource>


> <Ki (nM)>


> <IC50 (nM)>
>100000

> <Kd (nM)>


> <EC50 (nM)>


> <kon (M-1-s-1)>


> <koff (s-1)>


> <pH>


> <Temp C>


> <Curation/DataSource>
ChEMBL

> <Article DOI>
10.1021/ml5001728

> <PMID>
25050172

> <PubChem AID>


> <Patent Number>


> <Authors>
Hameed P, S; Raichurkar, A; Madhavapeddi, P; Menasinakai, S; Sharma, S; Kaur, P; Nandishaiah, R; Panduga, V; Reddy, J; Sambandamurthy, VK; Sriram, D

> <Institution>
AstraZeneca

> <Link to Ligand in BindingDB>
http://www.bindingdb.org/bind/chemsearch/marvin/MolStructure.jsp?monomerid=50054797

> <Link to Ligand-Target Pair in BindingDB>
http://www.bindingdb.org/jsp/dbsearch/PrimarySearch_ki.jsp?energyterm=kJ/mole&tag=pol&polymerid=50006452&target=DNA+gyrase+subunit+B&column=ki&startPg=0&Increment=50&submit=Search

> <Link to Ligand-Target Pair in BindingDB>
http://www.bindingdb.org/jsp/dbsearch/PrimarySearch_ki.jsp?energyterm=kJ/mole&tag=r21&monomerid=50054797&enzyme=DNA+gyrase+subunit+B&column=ki&startPg=0&Increment=50&submit=Search

> <Ligand HET ID in PDB>


> <PDB ID(s) for Ligand-Target Complex>


> <PubChem CID>
118709276

> <PubChem SID>
103951371

> <ChEBI ID of Ligand>


> <ChEMBL ID of Ligand>
CHEMBL357968

> <DrugBank ID of Ligand>


> <IUPHAR_GRAC ID of Ligand>


> <KEGG ID of Ligand>


> <ZINC ID of Ligand>
ZINC27525049

> <Number of Protein Chains in Target (>1 implies a multichain complex)>
1

> <BindingDB Target Chain Sequence>
MAAQKNNAPKEYGADSITILEGLEAVRKRPGMYIGSTGERGLHHLIWEVVDNAVDEAMAGFATRVDVKIHADGSVEVRDDGRGIPVEMHATGMPTIDVVMTQLHAGGKFDGETYAVSGGLHGVGVSVVNALSTRLEATVLRDGYEWFQYYDRSVPGKLKQGGETKETGTTIRFWADPEIFETTDYNFETVARRLQEMAFLNKGLTIELTDERVTAEEVVDDVVKDTAEAPKTADEKAAEATGPSKVKHRVFHYPGGLVDYVKHINRTKTPIQQSIIDFDGKGPGHEVEIAMQWNAGYSESVHTFANTINTHEGGTHEEGFRAALTSVVNRYAKDKKLLKDKDPNLTGDDIREGLAAVISVKVAEPQFEGQTKTKLGNTEVKSFVQKICNEQLQHWFEANPAEAKTVVNKAVSSAQARIAARKARELVRRKSATDIGGLPGKLADCRSTDPSKSELYVVEGDSAGGSAKSGRDSMFQAILPLRGKIINVEKARIDRVLKNTEVQSIITALGTGIHDEFDISKLRYHKIVLMADADVDGQHISTLLLTLLFRFMKPLVENGHIFLAQPPLYKLKWQRSEPEFAYSDRERDGLLEAGRAAGKKINVDDGIQRYKGLGEMDAKELWETTMDPSVRVLRQVTLDDAAAADELFSILMGEDVEARRSFITRNAKDVRFLDV

> <PDB ID(s) of Target Chain>
4BAE

> <UniProt (SwissProt) Recommended Name of Target Chain>
DNA gyrase subunit B

> <UniProt (SwissProt) Entry Name of Target Chain>
GYRB_MYCSM

> <UniProt (SwissProt) Primary ID of Target Chain>
P0C559

> <UniProt (SwissProt) Secondary ID(s) of Target Chain>
P48355,Q59555

> <UniProt (SwissProt) Alternative ID(s) of Target Chain>


> <UniProt (TrEMBL) Submitted Name of Target Chain>


> <UniProt (TrEMBL) Entry Name of Target Chain>


> <UniProt (TrEMBL) Primary ID of Target Chain>


> <UniProt (TrEMBL) Secondary ID(s) of Target Chain>


> <UniProt (TrEMBL) Alternative ID(s) of Target Chain>


$$$$

  SciTegic02271514512D

 34 38  0  0  0  0            999 V2000
    7.1882   -5.2333    0.0000 C   0  0
    7.1871   -6.0528    0.0000 C   0  0
    7.8951   -6.4618    0.0000 N   0  0
    7.8933   -4.8244    0.0000 C   0  0
    8.6019   -5.2297    0.0000 C   0  0
    8.6027   -6.0487    0.0000 C   0  0
    9.3112   -6.4558    0.0000 C   0  0
   10.0195   -6.0449    0.0000 C   0  0
   10.0148   -5.2228    0.0000 C   0  0
    9.3057   -4.8195    0.0000 N   0  0
   10.7200   -4.8099    0.0000 O   0  0
    9.3013   -4.0023    0.0000 C   0  0
   10.0069   -3.5899    0.0000 C   0  0
   10.0025   -2.7728    0.0000 N   0  0
   10.7118   -2.3633    0.0000 C   0  0
   10.7094   -1.5497    0.0000 C   0  0
   10.0014   -1.1411    0.0000 C   0  0
    9.2940   -1.5522    0.0000 C   0  0
    9.2948   -2.3720    0.0000 C   0  0
    6.4804   -4.8249    0.0000 O   0  0
    6.4802   -4.0077    0.0000 C   0  0
   10.0001   -0.3239    0.0000 C   0  0
   10.6620    0.1581    0.0000 C   0  0
   10.4083    0.9331    0.0000 N   0  0
    9.3399    0.1601    0.0000 C   0  0
    9.5919    0.9299    0.0000 C   0  0
    9.0483    1.5320    0.0000 C   0  0
    8.2526    1.3630    0.0000 C   0  0
    8.0034    0.5891    0.0000 C   0  0
    8.5486   -0.0167    0.0000 C   0  0
    7.7044    1.9704    0.0000 C   0  0
    7.9552    2.7527    0.0000 F   0  0
    6.9055    1.7954    0.0000 F   0  0
    7.1195    2.5506    0.0000 F   0  0
  1  2  2  0
  2  3  1  0
  3  6  2  0
  5  4  2  0
  4  1  1  0
  5  6  1  0
  6  7  1  0
  7  8  2  0
  8  9  1  0
  9 10  1  0
 10  5  1  0
  9 11  2  0
 10 12  1  0
 12 13  1  0
 13 14  1  0
 14 15  1  0
 14 19  1  0
 15 16  1  0
 16 17  1  0
 17 18  1  0
 18 19  1  0
  1 20  1  0
 20 21  1  0
 17 22  1  0
 22 23  2  0
 23 24  1  0
 24 26  1  0
 25 22  1  0
 25 26  2  0
 26 27  1  0
 27 28  2  0
 28 29  1  0
 29 30  2  0
 30 25  1  0
 28 31  1  0
 31 32  1  0
 31 33  1  0
 31 34  1  0
M  END
> <From> 
www.bindingDB.org

> <BindingDB Reactant_set_id>
50284319

> <Ligand InChI>
InChI=1S/C25H25F3N4O2/c1-34-18-13-23-21(29-14-18)4-5-24(33)32(23)11-10-31-8-6-16(7-9-31)20-15-30-22-12-17(25(26,27)28)2-3-19(20)22/h2-5,12-16,30H,6-11H2,1H3

> <Ligand InChI Key>
TXKFDKQHGFEJRK-UHFFFAOYSA-N

> <BindingDB MonomerID>
50054806

> <BindingDB Ligand Name>
CHEMBL3319004

> <Target Name Assigned by Curator or DataSource>
DNA gyrase subunit B

> <Target Source Organism According to Curator or DataSource>


> <Ki (nM)>


> <IC50 (nM)>
>100000

> <Kd (nM)>


> <EC50 (nM)>


> <kon (M-1-s-1)>


> <koff (s-1)>


> <pH>


> <Temp C>


> <Curation/DataSource>
ChEMBL

> <Article DOI>
10.1021/ml5001728

> <PMID>
25050172

> <PubChem AID>


> <Patent Number>


> <Authors>
Hameed P, S; Raichurkar, A; Madhavapeddi, P; Menasinakai, S; Sharma, S; Kaur, P; Nandishaiah, R; Panduga, V; Reddy, J; Sambandamurthy, VK; Sriram, D

> <Institution>
AstraZeneca

> <Link to Ligand in BindingDB>
http://www.bindingdb.org/bind/chemsearch/marvin/MolStructure.jsp?monomerid=50054806

> <Link to Ligand-Target Pair in BindingDB>
http://www.bindingdb.org/jsp/dbsearch/PrimarySearch_ki.jsp?energyterm=kJ/mole&tag=pol&polymerid=50006452&target=DNA+gyrase+subunit+B&column=ki&startPg=0&Increment=50&submit=Search

> <Link to Ligand-Target Pair in BindingDB>
http://www.bindingdb.org/jsp/dbsearch/PrimarySearch_ki.jsp?energyterm=kJ/mole&tag=r21&monomerid=50054806&enzyme=DNA+gyrase+subunit+B&column=ki&startPg=0&Increment=50&submit=Search

> <Ligand HET ID in PDB>


> <PDB ID(s) for Ligand-Target Complex>


> <PubChem CID>
118709277

> <PubChem SID>
103951380

> <ChEBI ID of Ligand>


> <ChEMBL ID of Ligand>
CHEMBL342340

> <DrugBank ID of Ligand>


> <IUPHAR_GRAC ID of Ligand>


> <KEGG ID of Ligand>


> <ZINC ID of Ligand>
ZINC13760497

> <Number of Protein Chains in Target (>1 implies a multichain complex)>
1

> <BindingDB Target Chain Sequence>
MAAQKNNAPKEYGADSITILEGLEAVRKRPGMYIGSTGERGLHHLIWEVVDNAVDEAMAGFATRVDVKIHADGSVEVRDDGRGIPVEMHATGMPTIDVVMTQLHAGGKFDGETYAVSGGLHGVGVSVVNALSTRLEATVLRDGYEWFQYYDRSVPGKLKQGGETKETGTTIRFWADPEIFETTDYNFETVARRLQEMAFLNKGLTIELTDERVTAEEVVDDVVKDTAEAPKTADEKAAEATGPSKVKHRVFHYPGGLVDYVKHINRTKTPIQQSIIDFDGKGPGHEVEIAMQWNAGYSESVHTFANTINTHEGGTHEEGFRAALTSVVNRYAKDKKLLKDKDPNLTGDDIREGLAAVISVKVAEPQFEGQTKTKLGNTEVKSFVQKICNEQLQHWFEANPAEAKTVVNKAVSSAQARIAARKARELVRRKSATDIGGLPGKLADCRSTDPSKSELYVVEGDSAGGSAKSGRDSMFQAILPLRGKIINVEKARIDRVLKNTEVQSIITALGTGIHDEFDISKLRYHKIVLMADADVDGQHISTLLLTLLFRFMKPLVENGHIFLAQPPLYKLKWQRSEPEFAYSDRERDGLLEAGRAAGKKINVDDGIQRYKGLGEMDAKELWETTMDPSVRVLRQVTLDDAAAADELFSILMGEDVEARRSFITRNAKDVRFLDV

> <PDB ID(s) of Target Chain>
4BAE

> <UniProt (SwissProt) Recommended Name of Target Chain>
DNA gyrase subunit B

> <UniProt (SwissProt) Entry Name of Target Chain>
GYRB_MYCSM

> <UniProt (SwissProt) Primary ID of Target Chain>
P0C559

> <UniProt (SwissProt) Secondary ID(s) of Target Chain>
P48355,Q59555

> <UniProt (SwissProt) Alternative ID(s) of Target Chain>


> <UniProt (TrEMBL) Submitted Name of Target Chain>


> <UniProt (TrEMBL) Entry Name of Target Chain>


> <UniProt (TrEMBL) Primary ID of Target Chain>


> <UniProt (TrEMBL) Secondary ID(s) of Target Chain>


> <UniProt (TrEMBL) Alternative ID(s) of Target Chain>


$$$$

  SciTegic02271514512D

 32 36  0  0  0  0            999 V2000
   12.9209   -5.9060    0.0000 C   0  0
   12.9198   -6.7256    0.0000 C   0  0
   13.6278   -7.1345    0.0000 N   0  0
   13.6260   -5.4972    0.0000 C   0  0
   14.3347   -5.9024    0.0000 C   0  0
   14.3354   -6.7214    0.0000 C   0  0
   15.0440   -7.1285    0.0000 C   0  0
   15.7522   -6.7177    0.0000 C   0  0
   15.7475   -5.8956    0.0000 C   0  0
   15.0384   -5.4922    0.0000 N   0  0
   16.4527   -5.4827    0.0000 O   0  0
   15.0340   -4.6750    0.0000 C   0  0
   15.7396   -4.2627    0.0000 C   0  0
   15.7352   -3.4455    0.0000 N   0  0
   16.4445   -3.0361    0.0000 C   0  0
   16.4422   -2.2225    0.0000 C   0  0
   15.7341   -1.8138    0.0000 C   0  0
   15.0268   -2.2249    0.0000 C   0  0
   15.0275   -3.0447    0.0000 C   0  0
   12.2131   -5.4976    0.0000 O   0  0
   12.2129   -4.6804    0.0000 C   0  0
   15.7329   -0.9966    0.0000 C   0  0
   16.3947   -0.5171    0.0000 C   0  0
   16.1410    0.2604    0.0000 N   0  0
   15.0726   -0.5192    0.0000 C   0  0
   15.3246    0.2572    0.0000 C   0  0
   14.7810    0.8592    0.0000 C   0  0
   13.9853    0.6903    0.0000 C   0  0
   13.7361   -0.0897    0.0000 C   0  0
   14.2814   -0.6895    0.0000 C   0  0
   12.9368   -0.2669    0.0000 Cl  0  0
   17.1720   -0.7696    0.0000 O   0  0
  1  2  2  0
  2  3  1  0
  3  6  2  0
  5  4  2  0
  4  1  1  0
  5  6  1  0
  6  7  1  0
  7  8  2  0
  8  9  1  0
  9 10  1  0
 10  5  1  0
  9 11  2  0
 10 12  1  0
 12 13  1  0
 13 14  1  0
 14 15  1  0
 14 19  1  0
 15 16  1  0
 16 17  1  0
 17 18  1  0
 18 19  1  0
  1 20  1  0
 20 21  1  0
 17 22  1  0
 22 23  1  0
 23 24  1  0
 24 26  1  0
 25 22  1  0
 25 26  2  0
 26 27  1  0
 27 28  2  0
 28 29  1  0
 29 30  2  0
 30 25  1  0
 29 31  1  0
 23 32  2  0
M  END
> <From> 
www.bindingDB.org

> <BindingDB Reactant_set_id>
50284320

> <Ligand InChI>
InChI=1S/C24H25ClN4O3/c1-32-17-13-21-20(26-14-17)4-5-22(30)29(21)11-10-28-8-6-15(7-9-28)23-18-12-16(25)2-3-19(18)27-24(23)31/h2-5,12-15,23H,6-11H2,1H3,(H,27,31)

> <Ligand InChI Key>
QRHUUTCZBOIWPZ-UHFFFAOYSA-N

> <BindingDB MonomerID>
50054807

> <BindingDB Ligand Name>
CHEMBL3318982

> <Target Name Assigned by Curator or DataSource>
DNA gyrase subunit B

> <Target Source Organism According to Curator or DataSource>


> <Ki (nM)>


> <IC50 (nM)>
>100000

> <Kd (nM)>


> <EC50 (nM)>


> <kon (M-1-s-1)>


> <koff (s-1)>


> <pH>


> <Temp C>


> <Curation/DataSource>
ChEMBL

> <Article DOI>
10.1021/ml5001728

> <PMID>
25050172

> <PubChem AID>


> <Patent Number>


> <Authors>
Hameed P, S; Raichurkar, A; Madhavapeddi, P; Menasinakai, S; Sharma, S; Kaur, P; Nandishaiah, R; Panduga, V; Reddy, J; Sambandamurthy, VK; Sriram, D

> <Institution>
AstraZeneca

> <Link to Ligand in BindingDB>
http://www.bindingdb.org/bind/chemsearch/marvin/MolStructure.jsp?monomerid=50054807

> <Link to Ligand-Target Pair in BindingDB>
http://www.bindingdb.org/jsp/dbsearch/PrimarySearch_ki.jsp?energyterm=kJ/mole&tag=pol&polymerid=50006452&target=DNA+gyrase+subunit+B&column=ki&startPg=0&Increment=50&submit=Search

> <Link to Ligand-Target Pair in BindingDB>
http://www.bindingdb.org/jsp/dbsearch/PrimarySearch_ki.jsp?energyterm=kJ/mole&tag=r21&monomerid=50054807&enzyme=DNA+gyrase+subunit+B&column=ki&startPg=0&Increment=50&submit=Search

> <Ligand HET ID in PDB>


> <PDB ID(s) for Ligand-Target Complex>


> <PubChem CID>
118709261

> <PubChem SID>
103951381

> <ChEBI ID of Ligand>


> <ChEMBL ID of Ligand>
CHEMBL144195

> <DrugBank ID of Ligand>


> <IUPHAR_GRAC ID of Ligand>


> <KEGG ID of Ligand>


> <ZINC ID of Ligand>
ZINC13760495

> <Number of Protein Chains in Target (>1 implies a multichain complex)>
1

> <BindingDB Target Chain Sequence>
MAAQKNNAPKEYGADSITILEGLEAVRKRPGMYIGSTGERGLHHLIWEVVDNAVDEAMAGFATRVDVKIHADGSVEVRDDGRGIPVEMHATGMPTIDVVMTQLHAGGKFDGETYAVSGGLHGVGVSVVNALSTRLEATVLRDGYEWFQYYDRSVPGKLKQGGETKETGTTIRFWADPEIFETTDYNFETVARRLQEMAFLNKGLTIELTDERVTAEEVVDDVVKDTAEAPKTADEKAAEATGPSKVKHRVFHYPGGLVDYVKHINRTKTPIQQSIIDFDGKGPGHEVEIAMQWNAGYSESVHTFANTINTHEGGTHEEGFRAALTSVVNRYAKDKKLLKDKDPNLTGDDIREGLAAVISVKVAEPQFEGQTKTKLGNTEVKSFVQKICNEQLQHWFEANPAEAKTVVNKAVSSAQARIAARKARELVRRKSATDIGGLPGKLADCRSTDPSKSELYVVEGDSAGGSAKSGRDSMFQAILPLRGKIINVEKARIDRVLKNTEVQSIITALGTGIHDEFDISKLRYHKIVLMADADVDGQHISTLLLTLLFRFMKPLVENGHIFLAQPPLYKLKWQRSEPEFAYSDRERDGLLEAGRAAGKKINVDDGIQRYKGLGEMDAKELWETTMDPSVRVLRQVTLDDAAAADELFSILMGEDVEARRSFITRNAKDVRFLDV

> <PDB ID(s) of Target Chain>
4BAE

> <UniProt (SwissProt) Recommended Name of Target Chain>
DNA gyrase subunit B

> <UniProt (SwissProt) Entry Name of Target Chain>
GYRB_MYCSM

> <UniProt (SwissProt) Primary ID of Target Chain>
P0C559

> <UniProt (SwissProt) Secondary ID(s) of Target Chain>
P48355,Q59555

> <UniProt (SwissProt) Alternative ID(s) of Target Chain>


> <UniProt (TrEMBL) Submitted Name of Target Chain>


> <UniProt (TrEMBL) Entry Name of Target Chain>


> <UniProt (TrEMBL) Primary ID of Target Chain>


> <UniProt (TrEMBL) Secondary ID(s) of Target Chain>


> <UniProt (TrEMBL) Alternative ID(s) of Target Chain>


$$$$

  SciTegic02271514512D

 34 38  0  0  0  0            999 V2000
    2.2553   -4.8933    0.0000 N   0  0
    1.8466   -5.6011    0.0000 C   0  0
    1.0294   -5.6011    0.0000 C   0  0
    0.6208   -4.8933    0.0000 C   0  0
    1.0294   -4.1856    0.0000 C   0  0
    0.6208   -3.4778    0.0000 N   0  0
    1.0294   -2.7701    0.0000 C   0  0
    1.8466   -2.7701    0.0000 C   0  0
    2.2553   -3.4778    0.0000 C   0  0
    1.8466   -4.1856    0.0000 C   0  0
    2.2553   -6.3088    0.0000 O   0  0
    3.0725   -4.8933    0.0000 C   0  0
    3.4811   -5.6011    0.0000 C   0  0
    4.2984   -5.6011    0.0000 N   0  0
    4.7070   -4.8933    0.0000 C   0  0
    5.5242   -4.8933    0.0000 C   0  0
    5.9329   -5.6011    0.0000 C   0  0
    5.5242   -6.3088    0.0000 C   0  0
    4.7070   -6.3088    0.0000 C   0  0
    6.7501   -5.6011    0.0000 C   0  0
    7.2305   -6.2622    0.0000 N   0  0
    8.0077   -6.0097    0.0000 C   0  0
    8.0077   -5.1925    0.0000 C   0  0
    7.2305   -4.9399    0.0000 N   0  0
    8.7155   -4.7838    0.0000 C   0  0
    9.4232   -5.1925    0.0000 C   0  0
    9.4232   -6.0097    0.0000 C   0  0
    8.7155   -6.4183    0.0000 C   0  0
    2.2553   -2.0623    0.0000 O   0  0
    1.8466   -1.3546    0.0000 C   0  0
   10.1309   -4.7839    0.0000 C   0  0
   10.8386   -5.1925    0.0000 F   0  0
   10.1309   -3.9667    0.0000 F   0  0
   10.8340   -4.3707    0.0000 F   0  0
  1  2  1  0
  2  3  1  0
  3  4  2  0
  4  5  1  0
  5  6  2  0
  6  7  1  0
  7  8  2  0
  8  9  1  0
  9 10  2  0
  1 10  1  0
  5 10  1  0
  2 11  2  0
 12 13  1  0
 14 15  1  0
 15 16  1  0
 16 17  1  0
 17 18  1  0
 18 19  1  0
 14 19  1  0
 20 21  1  0
 21 22  1  0
 22 23  1  0
 23 24  1  0
 20 24  2  0
 25 26  1  0
 26 27  2  0
 27 28  1  0
 22 28  2  0
 23 25  2  0
 17 20  1  0
 13 14  1  0
  1 12  1  0
 29 30  1  0
  8 29  1  0
 26 31  1  0
 31 32  1  0
 31 33  1  0
 31 34  1  0
M  END
> <From> 
www.bindingDB.org

> <BindingDB Reactant_set_id>
50284321

> <Ligand InChI>
InChI=1S/C24H24F3N5O2/c1-34-17-13-21-19(28-14-17)4-5-22(33)32(21)11-10-31-8-6-15(7-9-31)23-29-18-3-2-16(24(25,26)27)12-20(18)30-23/h2-5,12-15H,6-11H2,1H3,(H,29,30)

> <Ligand InChI Key>
WFBIDTFPRPTEMD-UHFFFAOYSA-N

> <BindingDB MonomerID>
50054808

> <BindingDB Ligand Name>
CHEMBL3318983

> <Target Name Assigned by Curator or DataSource>
DNA gyrase subunit B

> <Target Source Organism According to Curator or DataSource>


> <Ki (nM)>


> <IC50 (nM)>
>100000

> <Kd (nM)>


> <EC50 (nM)>


> <kon (M-1-s-1)>


> <koff (s-1)>


> <pH>


> <Temp C>


> <Curation/DataSource>
ChEMBL

> <Article DOI>
10.1021/ml5001728

> <PMID>
25050172

> <PubChem AID>


> <Patent Number>


> <Authors>
Hameed P, S; Raichurkar, A; Madhavapeddi, P; Menasinakai, S; Sharma, S; Kaur, P; Nandishaiah, R; Panduga, V; Reddy, J; Sambandamurthy, VK; Sriram, D

> <Institution>
AstraZeneca

> <Link to Ligand in BindingDB>
http://www.bindingdb.org/bind/chemsearch/marvin/MolStructure.jsp?monomerid=50054808

> <Link to Ligand-Target Pair in BindingDB>
http://www.bindingdb.org/jsp/dbsearch/PrimarySearch_ki.jsp?energyterm=kJ/mole&tag=pol&polymerid=50006452&target=DNA+gyrase+subunit+B&column=ki&startPg=0&Increment=50&submit=Search

> <Link to Ligand-Target Pair in BindingDB>
http://www.bindingdb.org/jsp/dbsearch/PrimarySearch_ki.jsp?energyterm=kJ/mole&tag=r21&monomerid=50054808&enzyme=DNA+gyrase+subunit+B&column=ki&startPg=0&Increment=50&submit=Search

> <Ligand HET ID in PDB>


> <PDB ID(s) for Ligand-Target Complex>


> <PubChem CID>
86279081

> <PubChem SID>
103951382

> <ChEBI ID of Ligand>


> <ChEMBL ID of Ligand>
CHEMBL358975

> <DrugBank ID of Ligand>


> <IUPHAR_GRAC ID of Ligand>


> <KEGG ID of Ligand>


> <ZINC ID of Ligand>
ZINC01533540

> <Number of Protein Chains in Target (>1 implies a multichain complex)>
1

> <BindingDB Target Chain Sequence>
MAAQKNNAPKEYGADSITILEGLEAVRKRPGMYIGSTGERGLHHLIWEVVDNAVDEAMAGFATRVDVKIHADGSVEVRDDGRGIPVEMHATGMPTIDVVMTQLHAGGKFDGETYAVSGGLHGVGVSVVNALSTRLEATVLRDGYEWFQYYDRSVPGKLKQGGETKETGTTIRFWADPEIFETTDYNFETVARRLQEMAFLNKGLTIELTDERVTAEEVVDDVVKDTAEAPKTADEKAAEATGPSKVKHRVFHYPGGLVDYVKHINRTKTPIQQSIIDFDGKGPGHEVEIAMQWNAGYSESVHTFANTINTHEGGTHEEGFRAALTSVVNRYAKDKKLLKDKDPNLTGDDIREGLAAVISVKVAEPQFEGQTKTKLGNTEVKSFVQKICNEQLQHWFEANPAEAKTVVNKAVSSAQARIAARKARELVRRKSATDIGGLPGKLADCRSTDPSKSELYVVEGDSAGGSAKSGRDSMFQAILPLRGKIINVEKARIDRVLKNTEVQSIITALGTGIHDEFDISKLRYHKIVLMADADVDGQHISTLLLTLLFRFMKPLVENGHIFLAQPPLYKLKWQRSEPEFAYSDRERDGLLEAGRAAGKKINVDDGIQRYKGLGEMDAKELWETTMDPSVRVLRQVTLDDAAAADELFSILMGEDVEARRSFITRNAKDVRFLDV

> <PDB ID(s) of Target Chain>
4BAE

> <UniProt (SwissProt) Recommended Name of Target Chain>
DNA gyrase subunit B

> <UniProt (SwissProt) Entry Name of Target Chain>
GYRB_MYCSM

> <UniProt (SwissProt) Primary ID of Target Chain>
P0C559

> <UniProt (SwissProt) Secondary ID(s) of Target Chain>
P48355,Q59555

> <UniProt (SwissProt) Alternative ID(s) of Target Chain>


> <UniProt (TrEMBL) Submitted Name of Target Chain>


> <UniProt (TrEMBL) Entry Name of Target Chain>


> <UniProt (TrEMBL) Primary ID of Target Chain>


> <UniProt (TrEMBL) Secondary ID(s) of Target Chain>


> <UniProt (TrEMBL) Alternative ID(s) of Target Chain>


$$$$

  SciTegic12221716142D

 27 29  0  0  0  0            999 V2000
   10.3778   -8.8554    0.0000 O   0  0
    9.9692   -9.5644    0.0000 C   0  0
    9.1478   -9.5644    0.0000 C   0  0
    8.6636  -10.2277    0.0000 C   0  0
    7.8863   -9.9730    0.0000 C   0  0
    7.2231  -10.4573    0.0000 Br  0  0
    7.8863   -9.1558    0.0000 C   0  0
    7.2231   -8.6716    0.0000 Br  0  0
    8.6636   -8.9012    0.0000 N   0  0
   10.3778  -10.2735    0.0000 N   0  0
   11.1991  -10.2735    0.0000 C   0  0
   11.6792   -9.6103    0.0000 N   0  0
   12.4564   -9.8649    0.0000 C   0  0
   13.1697   -9.4563    0.0000 C   0  0
   13.8787   -9.8649    0.0000 C   0  0
   13.8787  -10.6863    0.0000 C   0  0
   14.5878  -11.0948    0.0000 N   0  0
   15.2969  -10.6863    0.0000 C   0  0
   15.2969   -9.8649    0.0000 C   0  0
   16.0101   -9.4563    0.0000 C   0  0
   16.7192   -9.8649    0.0000 O   0  0
   16.7192  -10.6863    0.0000 C   0  0
   16.0101   -8.6350    0.0000 O   0  0
   16.0101  -11.0948    0.0000 O   0  0
   13.1697  -11.0948    0.0000 C   0  0
   12.4564  -10.6863    0.0000 C   0  0
   11.6792  -10.9368    0.0000 S   0  0
  1  2  2  0
  2  3  1  0
  3  4  2  0
  4  5  1  0
  5  6  1  0
  5  7  2  0
  7  8  1  0
  7  9  1  0
  3  9  1  0
  2 10  1  0
 10 11  1  0
 11 12  2  0
 12 13  1  0
 13 14  2  0
 14 15  1  0
 15 16  2  0
 16 17  1  0
 17 18  1  0
 18 19  1  0
 19 20  1  0
 20 21  1  0
 21 22  1  0
 20 23  2  0
 18 24  2  0
 16 25  1  0
 25 26  2  0
 13 26  1  0
 26 27  1  0
 11 27  1  0
M  END
> <From> 
www.bindingDB.org

> <BindingDB Reactant_set_id>
50524099

> <Ligand InChI>
InChI=1S/C16H12Br2N4O4S/c1-26-13(24)6-12(23)19-7-2-3-9-11(4-7)27-16(21-9)22-15(25)10-5-8(17)14(18)20-10/h2-5,20H,6H2,1H3,(H,19,23)(H,21,22,25)

> <Ligand InChI Key>
UXKCJANDRHWSCJ-UHFFFAOYSA-N

> <BindingDB MonomerID>
50198236

> <BindingDB Ligand Name>
CHEMBL3962799

> <Target Name Assigned by Curator or DataSource>
DNA gyrase

> <Target Source Organism According to Curator or DataSource>
Staphylococcus aureus

> <Ki (nM)>


> <IC50 (nM)>
>100000

> <Kd (nM)>


> <EC50 (nM)>


> <kon (M-1-s-1)>


> <koff (s-1)>


> <pH>


> <Temp C>


> <Curation/DataSource>
ChEMBL

> <Article DOI>
10.1021/acs.jmedchem.6b00864

> <PMID>
27541007

> <PubChem AID>


> <Patent Number>


> <Authors>
Gjorgjieva, M; Tomaic, T; Barancokova, M; Katsamakas, S; Ila, J; Tammela, P; Peterlin Maic, L; Kikelj, D

> <Institution>
University of Ljubljana

> <Link to Ligand in BindingDB>
http://www.bindingdb.org/bind/chemsearch/marvin/MolStructure.jsp?monomerid=50198236

> <Link to Ligand-Target Pair in BindingDB>
http://www.bindingdb.org/jsp/dbsearch/PrimarySearch_ki.jsp?energyterm=kJ/mole&tag=pol&polymerid=2626&target=DNA+gyrase&column=ki&startPg=0&Increment=50&submit=Search

> <Link to Ligand-Target Pair in BindingDB>
http://www.bindingdb.org/jsp/dbsearch/PrimarySearch_ki.jsp?energyterm=kJ/mole&tag=r21&monomerid=50198236&enzyme=DNA+gyrase&column=ki&startPg=0&Increment=50&submit=Search

> <Ligand HET ID in PDB>


> <PDB ID(s) for Ligand-Target Complex>


> <PubChem CID>
134152196

> <PubChem SID>
375978188

> <ChEBI ID of Ligand>


> <ChEMBL ID of Ligand>


> <DrugBank ID of Ligand>


> <IUPHAR_GRAC ID of Ligand>


> <KEGG ID of Ligand>


> <ZINC ID of Ligand>


> <Number of Protein Chains in Target (>1 implies a multichain complex)>
1

> <BindingDB Target Chain Sequence>
MVTALSDVNNTDNYGAGQIQVLEGLEAVRKRPGMYIGSTSERGLHHLVWEIVDNSIDEALAGYANQIEVVIEKDNWIKVTDNGRGIPVDIQEKMGRPAVEVILTVLHAGGKFGGGGYKVSGGLHGVGSSVVNALSQDLEVYVHRNETIYHQAYKKGVPQFDLKEVGTTDKTGTVIRFKADGEIFTETTVYNYETLQQRIRELAFLNKGIQITLRDERDEENVREDSYHYEGGIKSYVELLNENKEPIHDEPIYIHQSKDDIEVEIAIQYNSGYATNLLTYANNIHTYEGGTHEDGFKRALTRVLNSYGLSSKIMKEEKDRLSGEDTREGMTAIISIKHGDPQFEGQTKTKLGNSEVRQVVDKLFSEHFERFLYENPQVARTVVEKGIMAARARVAAKKAREVTRRKSALDVASLPGKLADCSSKSPEECEIFLVEGDSAGGSTKSGRDSRTQAILPLRGKILNVEKARLDRILNNNEIRQMITAFGTGIGGDFDLAKARYHKIVIMTDADVDGAHIRTLLLTFFYRFMRPLIEAGYVYIAQPPLYKLTQGKQKYYVYNDRELDKLKSELNPTPKWSIARYKGLGEMNADQLWETTMNPEHRALLQVKLEDAIEADQTFEMLMGDVVENRRQFIEDNAVYANLDF

> <PDB ID(s) of Target Chain>


> <UniProt (SwissProt) Recommended Name of Target Chain>
DNA gyrase subunit B

> <UniProt (SwissProt) Entry Name of Target Chain>
GYRB_STAAU

> <UniProt (SwissProt) Primary ID of Target Chain>
P0A0K8

> <UniProt (SwissProt) Secondary ID(s) of Target Chain>
P20832

> <UniProt (SwissProt) Alternative ID(s) of Target Chain>


> <UniProt (TrEMBL) Submitted Name of Target Chain>


> <UniProt (TrEMBL) Entry Name of Target Chain>


> <UniProt (TrEMBL) Primary ID of Target Chain>


> <UniProt (TrEMBL) Secondary ID(s) of Target Chain>


> <UniProt (TrEMBL) Alternative ID(s) of Target Chain>


$$$$

  SciTegic12201720502D

 25 27  0  0  0  0            999 V2000
   12.5868   -7.8829    0.0000 O   0  0
   12.9954   -8.5879    0.0000 C   0  0
   13.8126   -8.5879    0.0000 C   0  0
   14.2212   -9.2970    0.0000 O   0  0
   14.2212   -7.8829    0.0000 O   0  0
   12.5868   -9.2970    0.0000 N   0  0
   11.7696   -9.2970    0.0000 C   0  0
   11.2895   -8.6337    0.0000 N   0  0
   10.5123   -8.8884    0.0000 C   0  0
    9.8032   -8.4798    0.0000 C   0  0
    9.0982   -8.8884    0.0000 C   0  0
    9.0982   -9.7056    0.0000 C   0  0
    8.3891  -10.1142    0.0000 N   0  0
    7.6842   -9.7056    0.0000 C   0  0
    7.6842   -8.8884    0.0000 C   0  0
    8.3433   -8.4082    0.0000 C   0  0
    8.0928   -7.6310    0.0000 C   0  0
    8.5688   -6.9677    0.0000 Br  0  0
    7.2756   -7.6310    0.0000 C   0  0
    6.7954   -6.9677    0.0000 Br  0  0
    7.0209   -8.4082    0.0000 N   0  0
    6.9751  -10.1142    0.0000 O   0  0
    9.8032  -10.1142    0.0000 C   0  0
   10.5123   -9.7056    0.0000 C   0  0
   11.2895   -9.9561    0.0000 S   0  0
  1  2  2  0
  2  3  1  0
  3  4  1  0
  3  5  2  0
  2  6  1  0
  6  7  1  0
  7  8  2  0
  8  9  1  0
  9 10  2  0
 10 11  1  0
 11 12  2  0
 12 13  1  0
 13 14  1  0
 14 15  1  0
 15 16  2  0
 16 17  1  0
 17 18  1  0
 17 19  2  0
 19 20  1  0
 19 21  1  0
 15 21  1  0
 14 22  2  0
 12 23  1  0
 23 24  2  0
  9 24  1  0
 24 25  1  0
  7 25  1  0
M  END
> <From> 
www.bindingDB.org

> <BindingDB Reactant_set_id>
50524100

> <Ligand InChI>
InChI=1S/C14H8Br2N4O4S/c15-6-4-8(18-10(6)16)11(21)17-5-1-2-7-9(3-5)25-14(19-7)20-12(22)13(23)24/h1-4,18H,(H,17,21)(H,23,24)(H,19,20,22)

> <Ligand InChI Key>
FAKRMULLXOZHQH-UHFFFAOYSA-N

> <BindingDB MonomerID>
50198237

> <BindingDB Ligand Name>
CHEMBL3898662

> <Target Name Assigned by Curator or DataSource>
DNA gyrase

> <Target Source Organism According to Curator or DataSource>
Staphylococcus aureus

> <Ki (nM)>


> <IC50 (nM)>
>100000

> <Kd (nM)>


> <EC50 (nM)>


> <kon (M-1-s-1)>


> <koff (s-1)>


> <pH>


> <Temp C>


> <Curation/DataSource>
ChEMBL

> <Article DOI>
10.1021/acs.jmedchem.6b00864

> <PMID>
27541007

> <PubChem AID>


> <Patent Number>


> <Authors>
Gjorgjieva, M; Tomaic, T; Barancokova, M; Katsamakas, S; Ila, J; Tammela, P; Peterlin Maic, L; Kikelj, D

> <Institution>
University of Ljubljana

> <Link to Ligand in BindingDB>
http://www.bindingdb.org/bind/chemsearch/marvin/MolStructure.jsp?monomerid=50198237

> <Link to Ligand-Target Pair in BindingDB>
http://www.bindingdb.org/jsp/dbsearch/PrimarySearch_ki.jsp?energyterm=kJ/mole&tag=pol&polymerid=2626&target=DNA+gyrase&column=ki&startPg=0&Increment=50&submit=Search

> <Link to Ligand-Target Pair in BindingDB>
http://www.bindingdb.org/jsp/dbsearch/PrimarySearch_ki.jsp?energyterm=kJ/mole&tag=r21&monomerid=50198237&enzyme=DNA+gyrase&column=ki&startPg=0&Increment=50&submit=Search

> <Ligand HET ID in PDB>


> <PDB ID(s) for Ligand-Target Complex>


> <PubChem CID>
134134055

> <PubChem SID>
375978189

> <ChEBI ID of Ligand>


> <ChEMBL ID of Ligand>


> <DrugBank ID of Ligand>


> <IUPHAR_GRAC ID of Ligand>


> <KEGG ID of Ligand>


> <ZINC ID of Ligand>


> <Number of Protein Chains in Target (>1 implies a multichain complex)>
1

> <BindingDB Target Chain Sequence>
MVTALSDVNNTDNYGAGQIQVLEGLEAVRKRPGMYIGSTSERGLHHLVWEIVDNSIDEALAGYANQIEVVIEKDNWIKVTDNGRGIPVDIQEKMGRPAVEVILTVLHAGGKFGGGGYKVSGGLHGVGSSVVNALSQDLEVYVHRNETIYHQAYKKGVPQFDLKEVGTTDKTGTVIRFKADGEIFTETTVYNYETLQQRIRELAFLNKGIQITLRDERDEENVREDSYHYEGGIKSYVELLNENKEPIHDEPIYIHQSKDDIEVEIAIQYNSGYATNLLTYANNIHTYEGGTHEDGFKRALTRVLNSYGLSSKIMKEEKDRLSGEDTREGMTAIISIKHGDPQFEGQTKTKLGNSEVRQVVDKLFSEHFERFLYENPQVARTVVEKGIMAARARVAAKKAREVTRRKSALDVASLPGKLADCSSKSPEECEIFLVEGDSAGGSTKSGRDSRTQAILPLRGKILNVEKARLDRILNNNEIRQMITAFGTGIGGDFDLAKARYHKIVIMTDADVDGAHIRTLLLTFFYRFMRPLIEAGYVYIAQPPLYKLTQGKQKYYVYNDRELDKLKSELNPTPKWSIARYKGLGEMNADQLWETTMNPEHRALLQVKLEDAIEADQTFEMLMGDVVENRRQFIEDNAVYANLDF

> <PDB ID(s) of Target Chain>


> <UniProt (SwissProt) Recommended Name of Target Chain>
DNA gyrase subunit B

> <UniProt (SwissProt) Entry Name of Target Chain>
GYRB_STAAU

> <UniProt (SwissProt) Primary ID of Target Chain>
P0A0K8

> <UniProt (SwissProt) Secondary ID(s) of Target Chain>
P20832

> <UniProt (SwissProt) Alternative ID(s) of Target Chain>


> <UniProt (TrEMBL) Submitted Name of Target Chain>


> <UniProt (TrEMBL) Entry Name of Target Chain>


> <UniProt (TrEMBL) Primary ID of Target Chain>


> <UniProt (TrEMBL) Secondary ID(s) of Target Chain>


> <UniProt (TrEMBL) Alternative ID(s) of Target Chain>


$$$$

  SciTegic12211703312D

 25 27  0  0  0  0            999 V2000
   10.7364  -11.1414    0.0000 O   0  0
   10.3278  -10.4323    0.0000 C   0  0
    9.5106  -10.4323    0.0000 C   0  0
    9.0305   -9.7732    0.0000 C   0  0
    8.2533  -10.0237    0.0000 C   0  0
    7.5900   -9.5436    0.0000 Br  0  0
    8.2533  -10.8409    0.0000 C   0  0
    7.5900  -11.3210    0.0000 Br  0  0
    9.0305  -11.0914    0.0000 N   0  0
   10.7364   -9.7232    0.0000 N   0  0
   11.5536   -9.7232    0.0000 C   0  0
   12.0338  -10.3865    0.0000 N   0  0
   12.8110  -10.1318    0.0000 C   0  0
   13.5201  -10.5404    0.0000 C   0  0
   14.2250  -10.1318    0.0000 C   0  0
   14.2250   -9.3146    0.0000 C   0  0
   14.9341   -8.9060    0.0000 N   0  0
   15.6432   -9.3146    0.0000 C   0  0
   15.6432  -10.1318    0.0000 C   0  0
   14.9341  -10.5404    0.0000 O   0  0
   16.3482  -10.5404    0.0000 O   0  0
   16.3482   -8.9060    0.0000 O   0  0
   13.5201   -8.9060    0.0000 C   0  0
   12.8110   -9.3146    0.0000 C   0  0
   12.0338   -9.0641    0.0000 S   0  0
  1  2  2  0
  2  3  1  0
  3  4  2  0
  4  5  1  0
  5  6  1  0
  5  7  2  0
  7  8  1  0
  7  9  1  0
  3  9  1  0
  2 10  1  0
 10 11  1  0
 11 12  2  0
 12 13  1  0
 13 14  2  0
 14 15  1  0
 15 16  2  0
 16 17  1  0
 17 18  1  0
 18 19  1  0
 19 20  1  0
 19 21  2  0
 18 22  2  0
 16 23  1  0
 23 24  2  0
 13 24  1  0
 24 25  1  0
 11 25  1  0
M  END
> <From> 
www.bindingDB.org

> <BindingDB Reactant_set_id>
50524104

> <Ligand InChI>
InChI=1S/C14H8Br2N4O4S/c15-6-4-8(18-10(6)16)11(21)20-14-19-7-2-1-5(3-9(7)25-14)17-12(22)13(23)24/h1-4,18H,(H,17,22)(H,23,24)(H,19,20,21)

> <Ligand InChI Key>
ZDVZBRWEKLWNNU-UHFFFAOYSA-N

> <BindingDB MonomerID>
50198240

> <BindingDB Ligand Name>
CHEMBL3908487

> <Target Name Assigned by Curator or DataSource>
DNA gyrase

> <Target Source Organism According to Curator or DataSource>
Staphylococcus aureus

> <Ki (nM)>


> <IC50 (nM)>
>100000

> <Kd (nM)>


> <EC50 (nM)>


> <kon (M-1-s-1)>


> <koff (s-1)>


> <pH>


> <Temp C>


> <Curation/DataSource>
ChEMBL

> <Article DOI>
10.1021/acs.jmedchem.6b00864

> <PMID>
27541007

> <PubChem AID>


> <Patent Number>


> <Authors>
Gjorgjieva, M; Tomaic, T; Barancokova, M; Katsamakas, S; Ila, J; Tammela, P; Peterlin Maic, L; Kikelj, D

> <Institution>
University of Ljubljana

> <Link to Ligand in BindingDB>
http://www.bindingdb.org/bind/chemsearch/marvin/MolStructure.jsp?monomerid=50198240

> <Link to Ligand-Target Pair in BindingDB>
http://www.bindingdb.org/jsp/dbsearch/PrimarySearch_ki.jsp?energyterm=kJ/mole&tag=pol&polymerid=2626&target=DNA+gyrase&column=ki&startPg=0&Increment=50&submit=Search

> <Link to Ligand-Target Pair in BindingDB>
http://www.bindingdb.org/jsp/dbsearch/PrimarySearch_ki.jsp?energyterm=kJ/mole&tag=r21&monomerid=50198240&enzyme=DNA+gyrase&column=ki&startPg=0&Increment=50&submit=Search

> <Ligand HET ID in PDB>
6G9

> <PDB ID(s) for Ligand-Target Complex>
5L3J

> <PubChem CID>
121499169

> <PubChem SID>
375978192

> <ChEBI ID of Ligand>


> <ChEMBL ID of Ligand>


> <DrugBank ID of Ligand>


> <IUPHAR_GRAC ID of Ligand>


> <KEGG ID of Ligand>


> <ZINC ID of Ligand>


> <Number of Protein Chains in Target (>1 implies a multichain complex)>
1

> <BindingDB Target Chain Sequence>
MVTALSDVNNTDNYGAGQIQVLEGLEAVRKRPGMYIGSTSERGLHHLVWEIVDNSIDEALAGYANQIEVVIEKDNWIKVTDNGRGIPVDIQEKMGRPAVEVILTVLHAGGKFGGGGYKVSGGLHGVGSSVVNALSQDLEVYVHRNETIYHQAYKKGVPQFDLKEVGTTDKTGTVIRFKADGEIFTETTVYNYETLQQRIRELAFLNKGIQITLRDERDEENVREDSYHYEGGIKSYVELLNENKEPIHDEPIYIHQSKDDIEVEIAIQYNSGYATNLLTYANNIHTYEGGTHEDGFKRALTRVLNSYGLSSKIMKEEKDRLSGEDTREGMTAIISIKHGDPQFEGQTKTKLGNSEVRQVVDKLFSEHFERFLYENPQVARTVVEKGIMAARARVAAKKAREVTRRKSALDVASLPGKLADCSSKSPEECEIFLVEGDSAGGSTKSGRDSRTQAILPLRGKILNVEKARLDRILNNNEIRQMITAFGTGIGGDFDLAKARYHKIVIMTDADVDGAHIRTLLLTFFYRFMRPLIEAGYVYIAQPPLYKLTQGKQKYYVYNDRELDKLKSELNPTPKWSIARYKGLGEMNADQLWETTMNPEHRALLQVKLEDAIEADQTFEMLMGDVVENRRQFIEDNAVYANLDF

> <PDB ID(s) of Target Chain>


> <UniProt (SwissProt) Recommended Name of Target Chain>
DNA gyrase subunit B

> <UniProt (SwissProt) Entry Name of Target Chain>
GYRB_STAAU

> <UniProt (SwissProt) Primary ID of Target Chain>
P0A0K8

> <UniProt (SwissProt) Secondary ID(s) of Target Chain>
P20832

> <UniProt (SwissProt) Alternative ID(s) of Target Chain>


> <UniProt (TrEMBL) Submitted Name of Target Chain>


> <UniProt (TrEMBL) Entry Name of Target Chain>


> <UniProt (TrEMBL) Primary ID of Target Chain>


> <UniProt (TrEMBL) Secondary ID(s) of Target Chain>


> <UniProt (TrEMBL) Alternative ID(s) of Target Chain>


$$$$

  SciTegic12211701052D

 28 30  0  0  0  0            999 V2000
   11.7075   -7.3753    0.0000 O   0  0
   12.1161   -8.0802    0.0000 C   0  0
   12.9333   -8.0802    0.0000 C   0  0
   13.3418   -7.3753    0.0000 C   0  0
   14.1590   -7.3753    0.0000 C   0  0
   14.5676   -8.0802    0.0000 O   0  0
   14.1590   -8.7893    0.0000 C   0  0
   14.5676   -6.6662    0.0000 O   0  0
   11.7075   -8.7893    0.0000 N   0  0
   10.8903   -8.7893    0.0000 C   0  0
   10.4060   -8.1261    0.0000 N   0  0
    9.6329   -8.3807    0.0000 C   0  0
    8.9238   -7.9721    0.0000 C   0  0
    8.2147   -8.3807    0.0000 C   0  0
    8.2147   -9.1979    0.0000 C   0  0
    7.5098   -9.6065    0.0000 N   0  0
    6.8007   -9.1979    0.0000 C   0  0
    6.8007   -8.3807    0.0000 C   0  0
    7.4598   -7.9006    0.0000 C   0  0
    7.2093   -7.1234    0.0000 C   0  0
    7.6894   -6.4601    0.0000 Br  0  0
    6.3921   -7.1234    0.0000 C   0  0
    5.9119   -6.4601    0.0000 Br  0  0
    6.1374   -7.9006    0.0000 N   0  0
    6.0916   -9.6065    0.0000 O   0  0
    8.9238   -9.6065    0.0000 C   0  0
    9.6329   -9.1979    0.0000 C   0  0
   10.4060   -9.4485    0.0000 S   0  0
  1  2  2  0
  2  3  1  0
  3  4  1  0
  4  5  1  0
  5  6  1  0
  6  7  1  0
  5  8  2  0
  2  9  1  0
  9 10  1  0
 10 11  2  0
 11 12  1  0
 12 13  2  0
 13 14  1  0
 14 15  2  0
 15 16  1  0
 16 17  1  0
 17 18  1  0
 18 19  2  0
 19 20  1  0
 20 21  1  0
 20 22  2  0
 22 23  1  0
 22 24  1  0
 18 24  1  0
 17 25  2  0
 15 26  1  0
 26 27  2  0
 12 27  1  0
 27 28  1  0
 10 28  1  0
M  END
> <From> 
www.bindingDB.org

> <BindingDB Reactant_set_id>
50524106

> <Ligand InChI>
InChI=1S/C17H14Br2N4O4S/c1-27-14(25)5-4-13(24)23-17-22-10-3-2-8(6-12(10)28-17)20-16(26)11-7-9(18)15(19)21-11/h2-3,6-7,21H,4-5H2,1H3,(H,20,26)(H,22,23,24)

> <Ligand InChI Key>
WOVXWDVYBWMWRN-UHFFFAOYSA-N

> <BindingDB MonomerID>
50198241

> <BindingDB Ligand Name>
CHEMBL3904782

> <Target Name Assigned by Curator or DataSource>
DNA gyrase

> <Target Source Organism According to Curator or DataSource>
Staphylococcus aureus

> <Ki (nM)>


> <IC50 (nM)>
>100000

> <Kd (nM)>


> <EC50 (nM)>


> <kon (M-1-s-1)>


> <koff (s-1)>


> <pH>


> <Temp C>


> <Curation/DataSource>
ChEMBL

> <Article DOI>
10.1021/acs.jmedchem.6b00864

> <PMID>
27541007

> <PubChem AID>


> <Patent Number>


> <Authors>
Gjorgjieva, M; Tomaic, T; Barancokova, M; Katsamakas, S; Ila, J; Tammela, P; Peterlin Maic, L; Kikelj, D

> <Institution>
University of Ljubljana

> <Link to Ligand in BindingDB>
http://www.bindingdb.org/bind/chemsearch/marvin/MolStructure.jsp?monomerid=50198241

> <Link to Ligand-Target Pair in BindingDB>
http://www.bindingdb.org/jsp/dbsearch/PrimarySearch_ki.jsp?energyterm=kJ/mole&tag=pol&polymerid=2626&target=DNA+gyrase&column=ki&startPg=0&Increment=50&submit=Search

> <Link to Ligand-Target Pair in BindingDB>
http://www.bindingdb.org/jsp/dbsearch/PrimarySearch_ki.jsp?energyterm=kJ/mole&tag=r21&monomerid=50198241&enzyme=DNA+gyrase&column=ki&startPg=0&Increment=50&submit=Search

> <Ligand HET ID in PDB>


> <PDB ID(s) for Ligand-Target Complex>


> <PubChem CID>
134135439

> <PubChem SID>
375978193

> <ChEBI ID of Ligand>


> <ChEMBL ID of Ligand>


> <DrugBank ID of Ligand>


> <IUPHAR_GRAC ID of Ligand>


> <KEGG ID of Ligand>


> <ZINC ID of Ligand>


> <Number of Protein Chains in Target (>1 implies a multichain complex)>
1

> <BindingDB Target Chain Sequence>
MVTALSDVNNTDNYGAGQIQVLEGLEAVRKRPGMYIGSTSERGLHHLVWEIVDNSIDEALAGYANQIEVVIEKDNWIKVTDNGRGIPVDIQEKMGRPAVEVILTVLHAGGKFGGGGYKVSGGLHGVGSSVVNALSQDLEVYVHRNETIYHQAYKKGVPQFDLKEVGTTDKTGTVIRFKADGEIFTETTVYNYETLQQRIRELAFLNKGIQITLRDERDEENVREDSYHYEGGIKSYVELLNENKEPIHDEPIYIHQSKDDIEVEIAIQYNSGYATNLLTYANNIHTYEGGTHEDGFKRALTRVLNSYGLSSKIMKEEKDRLSGEDTREGMTAIISIKHGDPQFEGQTKTKLGNSEVRQVVDKLFSEHFERFLYENPQVARTVVEKGIMAARARVAAKKAREVTRRKSALDVASLPGKLADCSSKSPEECEIFLVEGDSAGGSTKSGRDSRTQAILPLRGKILNVEKARLDRILNNNEIRQMITAFGTGIGGDFDLAKARYHKIVIMTDADVDGAHIRTLLLTFFYRFMRPLIEAGYVYIAQPPLYKLTQGKQKYYVYNDRELDKLKSELNPTPKWSIARYKGLGEMNADQLWETTMNPEHRALLQVKLEDAIEADQTFEMLMGDVVENRRQFIEDNAVYANLDF

> <PDB ID(s) of Target Chain>


> <UniProt (SwissProt) Recommended Name of Target Chain>
DNA gyrase subunit B

> <UniProt (SwissProt) Entry Name of Target Chain>
GYRB_STAAU

> <UniProt (SwissProt) Primary ID of Target Chain>
P0A0K8

> <UniProt (SwissProt) Secondary ID(s) of Target Chain>
P20832

> <UniProt (SwissProt) Alternative ID(s) of Target Chain>


> <UniProt (TrEMBL) Submitted Name of Target Chain>


> <UniProt (TrEMBL) Entry Name of Target Chain>


> <UniProt (TrEMBL) Primary ID of Target Chain>


> <UniProt (TrEMBL) Secondary ID(s) of Target Chain>


> <UniProt (TrEMBL) Alternative ID(s) of Target Chain>


$$$$

  SciTegic12241701292D

 20 22  0  0  0  0            999 V2000
    6.7586   -9.3144    0.0000 N   0  0
    7.4771   -8.9217    0.0000 C   0  0
    7.4923   -8.1007    0.0000 C   0  0
    8.2150   -7.7079    0.0000 C   0  0
    8.9141   -8.1321    0.0000 C   0  0
    9.6996   -7.8955    0.0000 N   0  0
   10.1654   -8.5707    0.0000 C   0  0
   10.9865   -8.5860    0.0000 N   0  0
   11.4106   -7.8868    0.0000 C   0  0
   11.0178   -7.1683    0.0000 C   0  0
   10.2065   -7.0651    0.0000 C   0  0
   10.0505   -6.2571    0.0000 C   0  0
    9.3106   -5.9100    0.0000 Cl  0  0
   10.7690   -5.8644    0.0000 C   0  0
   10.8764   -5.0530    0.0000 Cl  0  0
   11.3691   -6.4284    0.0000 N   0  0
   12.2316   -7.9062    0.0000 O   0  0
    9.6672   -9.2216    0.0000 S   0  0
    8.8947   -8.9531    0.0000 C   0  0
    8.1762   -9.3458    0.0000 C   0  0
  1  2  1  0
  2  3  2  0
  3  4  1  0
  4  5  2  0
  5  6  1  0
  6  7  2  0
  7  8  1  0
  8  9  1  0
  9 10  1  0
 10 11  2  0
 11 12  1  0
 12 13  1  0
 12 14  2  0
 14 15  1  0
 14 16  1  0
 10 16  1  0
  9 17  2  0
  7 18  1  0
  5 19  1  0
 18 19  1  0
 19 20  2  0
  2 20  1  0
M  END
> <From> 
www.bindingDB.org

> <BindingDB Reactant_set_id>
50524109

> <Ligand InChI>
InChI=1S/C12H8Cl2N4OS/c13-6-4-8(16-10(6)14)11(19)18-12-17-7-2-1-5(15)3-9(7)20-12/h1-4,16H,15H2,(H,17,18,19)

> <Ligand InChI Key>
VQWCEMRHFCBWMO-UHFFFAOYSA-N

> <BindingDB MonomerID>
50198262

> <BindingDB Ligand Name>
CHEMBL3973760

> <Target Name Assigned by Curator or DataSource>
DNA Gyrase Subunit B

> <Target Source Organism According to Curator or DataSource>
Escherichia coli

> <Ki (nM)>


> <IC50 (nM)>
>100000

> <Kd (nM)>


> <EC50 (nM)>


> <kon (M-1-s-1)>


> <koff (s-1)>


> <pH>


> <Temp C>


> <Curation/DataSource>
ChEMBL

> <Article DOI>
10.1021/acs.jmedchem.6b00864

> <PMID>
27541007

> <PubChem AID>


> <Patent Number>


> <Authors>
Gjorgjieva, M; Tomaic, T; Barancokova, M; Katsamakas, S; Ila, J; Tammela, P; Peterlin Maic, L; Kikelj, D

> <Institution>
University of Ljubljana

> <Link to Ligand in BindingDB>
http://www.bindingdb.org/bind/chemsearch/marvin/MolStructure.jsp?monomerid=50198262

> <Link to Ligand-Target Pair in BindingDB>
http://www.bindingdb.org/jsp/dbsearch/PrimarySearch_ki.jsp?energyterm=kJ/mole&tag=pol&polymerid=2630&target=DNA+Gyrase+Subunit+B&column=ki&startPg=0&Increment=50&submit=Search

> <Link to Ligand-Target Pair in BindingDB>
http://www.bindingdb.org/jsp/dbsearch/PrimarySearch_ki.jsp?energyterm=kJ/mole&tag=r21&monomerid=50198262&enzyme=DNA+Gyrase+Subunit+B&column=ki&startPg=0&Increment=50&submit=Search

> <Ligand HET ID in PDB>


> <PDB ID(s) for Ligand-Target Complex>


> <PubChem CID>
134153476

> <PubChem SID>
375978195

> <ChEBI ID of Ligand>


> <ChEMBL ID of Ligand>


> <DrugBank ID of Ligand>


> <IUPHAR_GRAC ID of Ligand>


> <KEGG ID of Ligand>


> <ZINC ID of Ligand>


> <Number of Protein Chains in Target (>1 implies a multichain complex)>
1

> <BindingDB Target Chain Sequence>
MSNSYDSSSIKVLKGLDAVRKRPGMYIGDTDDGTGLHHMVFEVVDNAIDEALAGHCKEII
VTIHADNSVSVQDDGRGIPTGIHPEEGVSAAEVIMTVLHAGGKFDDNSYKVSGGLHGVGV
SVVNALSQKLELVIQREGKIHRQIYEHGVPQAPLAVTGETEKTGTMVRFWPSLETFTNVT
EFEYEILAKRLRELSFLNSGVSIRLRDKRDGKEDHFHYEGGIKAFVEYLNKNKTPIHPNI
FYFSTEKDGIGVEVALQWNDGFQENIYCFTNNIPQRDGGTHLAGFRAAMTRTLNAYMDKE
GYSKKAKVSATGDDAREGLIAVVSVKVPDPKFSSQTKDKLVSSEVKSAVEQQMNELLAEY
LLENPTDAKIVVGKIIDAARAREAARRAREMTRRKGALDLAGLPGKLADCQERDPALSEL
YLVEGDSAGGSAKQGRNRKNQAILPLKGKILNVEKARFDKMLSSQEVATLITALGCGIGR
DEYNPDKLRYHSIIIMTDADVDGSHIRTLLLTFFYRQMPEIVERGHVYIAQPPLYKVKKG
KQEQYIKDDEAMDQYQISIALDGATLHTNASAPALAGEALEKLVSEYNATQKMINRMERR
YPKAMLKELIYQPTLTEADLSDEQTVTRWVNALVSELNDKEQHGSQWKFDVHTNAEQNLF
EPIVRVRTHGVDTDYPLDHEFITGGEYRRICTLGEKLRGLLEEDAFIERGERRQPVASFE
QALDWLVKESRRGLSIQRYKGLGEMNPEQLWETTMDPESRRMLRVTVKDAIAADQLFTTL
MGDAVEPRRAFIEENALKAANIDI

> <PDB ID(s) of Target Chain>
1KZN,3G7E,3NUH,4DUH,4HYP,4KFG,4PRV,4PRX,4PU9,4WUB,4WUC,4WUD,4XTJ,4ZVI,5L3J,5MMN,5MMO,5MMP,5Z4H,5Z4O,5Z9B,5Z9E,5Z9F,5Z9L,5Z9M,5Z9N,5Z9Q,6ENG,6F86,6F8J,6F94,6F96

> <UniProt (SwissProt) Recommended Name of Target Chain>
DNA gyrase subunit B

> <UniProt (SwissProt) Entry Name of Target Chain>
GYRB_ECOLI

> <UniProt (SwissProt) Primary ID of Target Chain>
P0AES6

> <UniProt (SwissProt) Secondary ID(s) of Target Chain>
O08438,P06982,Q2M811

> <UniProt (SwissProt) Alternative ID(s) of Target Chain>


> <UniProt (TrEMBL) Submitted Name of Target Chain>


> <UniProt (TrEMBL) Entry Name of Target Chain>


> <UniProt (TrEMBL) Primary ID of Target Chain>


> <UniProt (TrEMBL) Secondary ID(s) of Target Chain>


> <UniProt (TrEMBL) Alternative ID(s) of Target Chain>


$$$$

  SciTegic12211700282D

 27 29  0  0  0  0            999 V2000
    9.8501  -11.1393    0.0000 O   0  0
    9.4415  -10.4302    0.0000 C   0  0
    8.6243  -10.4302    0.0000 C   0  0
    8.1442   -9.7711    0.0000 C   0  0
    7.3670  -10.0216    0.0000 C   0  0
    6.7078   -9.5415    0.0000 Br  0  0
    7.3670  -10.8388    0.0000 C   0  0
    6.7078  -11.3190    0.0000 Br  0  0
    8.1442  -11.0935    0.0000 N   0  0
    9.8501   -9.7211    0.0000 N   0  0
   10.6673   -9.7211    0.0000 C   0  0
   11.1475  -10.3844    0.0000 N   0  0
   11.9247  -10.1297    0.0000 C   0  0
   12.6338  -10.5383    0.0000 C   0  0
   13.3429  -10.1297    0.0000 C   0  0
   13.3429   -9.3125    0.0000 C   0  0
   14.0478   -8.9040    0.0000 N   0  0
   14.7569   -9.3125    0.0000 C   0  0
   14.7569  -10.1297    0.0000 C   0  0
   15.4619  -10.5383    0.0000 C   0  0
   16.1710  -10.1297    0.0000 C   0  0
   16.8801  -10.5383    0.0000 O   0  0
   16.1710   -9.3125    0.0000 O   0  0
   15.4619   -8.9040    0.0000 O   0  0
   12.6338   -8.9040    0.0000 C   0  0
   11.9247   -9.3125    0.0000 C   0  0
   11.1475   -9.0620    0.0000 S   0  0
  1  2  2  0
  2  3  1  0
  3  4  2  0
  4  5  1  0
  5  6  1  0
  5  7  2  0
  7  8  1  0
  7  9  1  0
  3  9  1  0
  2 10  1  0
 10 11  1  0
 11 12  2  0
 12 13  1  0
 13 14  2  0
 14 15  1  0
 15 16  2  0
 16 17  1  0
 17 18  1  0
 18 19  1  0
 19 20  1  0
 20 21  1  0
 21 22  1  0
 21 23  2  0
 18 24  2  0
 16 25  1  0
 25 26  2  0
 13 26  1  0
 26 27  1  0
 11 27  1  0
M  END
> <From> 
www.bindingDB.org

> <BindingDB Reactant_set_id>
50524110

> <Ligand InChI>
InChI=1S/C16H12Br2N4O4S/c17-8-6-10(20-14(8)18)15(26)22-16-21-9-2-1-7(5-11(9)27-16)19-12(23)3-4-13(24)25/h1-2,5-6,20H,3-4H2,(H,19,23)(H,24,25)(H,21,22,26)

> <Ligand InChI Key>
SHXPARQCHVPBBF-UHFFFAOYSA-N

> <BindingDB MonomerID>
50198238

> <BindingDB Ligand Name>
CHEMBL3903891

> <Target Name Assigned by Curator or DataSource>
DNA gyrase

> <Target Source Organism According to Curator or DataSource>
Staphylococcus aureus

> <Ki (nM)>


> <IC50 (nM)>
>100000

> <Kd (nM)>


> <EC50 (nM)>


> <kon (M-1-s-1)>


> <koff (s-1)>


> <pH>


> <Temp C>


> <Curation/DataSource>
ChEMBL

> <Article DOI>
10.1021/acs.jmedchem.6b00864

> <PMID>
27541007

> <PubChem AID>


> <Patent Number>


> <Authors>
Gjorgjieva, M; Tomaic, T; Barancokova, M; Katsamakas, S; Ila, J; Tammela, P; Peterlin Maic, L; Kikelj, D

> <Institution>
University of Ljubljana

> <Link to Ligand in BindingDB>
http://www.bindingdb.org/bind/chemsearch/marvin/MolStructure.jsp?monomerid=50198238

> <Link to Ligand-Target Pair in BindingDB>
http://www.bindingdb.org/jsp/dbsearch/PrimarySearch_ki.jsp?energyterm=kJ/mole&tag=pol&polymerid=2626&target=DNA+gyrase&column=ki&startPg=0&Increment=50&submit=Search

> <Link to Ligand-Target Pair in BindingDB>
http://www.bindingdb.org/jsp/dbsearch/PrimarySearch_ki.jsp?energyterm=kJ/mole&tag=r21&monomerid=50198238&enzyme=DNA+gyrase&column=ki&startPg=0&Increment=50&submit=Search

> <Ligand HET ID in PDB>


> <PDB ID(s) for Ligand-Target Complex>


> <PubChem CID>
134135022

> <PubChem SID>
375978190

> <ChEBI ID of Ligand>


> <ChEMBL ID of Ligand>


> <DrugBank ID of Ligand>


> <IUPHAR_GRAC ID of Ligand>


> <KEGG ID of Ligand>


> <ZINC ID of Ligand>


> <Number of Protein Chains in Target (>1 implies a multichain complex)>
1

> <BindingDB Target Chain Sequence>
MVTALSDVNNTDNYGAGQIQVLEGLEAVRKRPGMYIGSTSERGLHHLVWEIVDNSIDEALAGYANQIEVVIEKDNWIKVTDNGRGIPVDIQEKMGRPAVEVILTVLHAGGKFGGGGYKVSGGLHGVGSSVVNALSQDLEVYVHRNETIYHQAYKKGVPQFDLKEVGTTDKTGTVIRFKADGEIFTETTVYNYETLQQRIRELAFLNKGIQITLRDERDEENVREDSYHYEGGIKSYVELLNENKEPIHDEPIYIHQSKDDIEVEIAIQYNSGYATNLLTYANNIHTYEGGTHEDGFKRALTRVLNSYGLSSKIMKEEKDRLSGEDTREGMTAIISIKHGDPQFEGQTKTKLGNSEVRQVVDKLFSEHFERFLYENPQVARTVVEKGIMAARARVAAKKAREVTRRKSALDVASLPGKLADCSSKSPEECEIFLVEGDSAGGSTKSGRDSRTQAILPLRGKILNVEKARLDRILNNNEIRQMITAFGTGIGGDFDLAKARYHKIVIMTDADVDGAHIRTLLLTFFYRFMRPLIEAGYVYIAQPPLYKLTQGKQKYYVYNDRELDKLKSELNPTPKWSIARYKGLGEMNADQLWETTMNPEHRALLQVKLEDAIEADQTFEMLMGDVVENRRQFIEDNAVYANLDF

> <PDB ID(s) of Target Chain>


> <UniProt (SwissProt) Recommended Name of Target Chain>
DNA gyrase subunit B

> <UniProt (SwissProt) Entry Name of Target Chain>
GYRB_STAAU

> <UniProt (SwissProt) Primary ID of Target Chain>
P0A0K8

> <UniProt (SwissProt) Secondary ID(s) of Target Chain>
P20832

> <UniProt (SwissProt) Alternative ID(s) of Target Chain>


> <UniProt (TrEMBL) Submitted Name of Target Chain>


> <UniProt (TrEMBL) Entry Name of Target Chain>


> <UniProt (TrEMBL) Primary ID of Target Chain>


> <UniProt (TrEMBL) Secondary ID(s) of Target Chain>


> <UniProt (TrEMBL) Alternative ID(s) of Target Chain>


$$$$

  SciTegic12211709222D

 27 29  0  0  0  0            999 V2000
   10.3748   -8.8574    0.0000 O   0  0
    9.9662   -9.5665    0.0000 C   0  0
    9.1449   -9.5665    0.0000 C   0  0
    8.6606  -10.2298    0.0000 C   0  0
    7.8834   -9.9751    0.0000 C   0  0
    7.2201  -10.4594    0.0000 Cl  0  0
    7.8834   -9.1579    0.0000 C   0  0
    7.2201   -8.6736    0.0000 Cl  0  0
    8.6606   -8.9032    0.0000 N   0  0
   10.3748  -10.2756    0.0000 N   0  0
   11.1961  -10.2756    0.0000 C   0  0
   11.6763   -9.6123    0.0000 N   0  0
   12.4535   -9.8670    0.0000 C   0  0
   13.1667   -9.4584    0.0000 C   0  0
   13.8758   -9.8670    0.0000 C   0  0
   13.8758  -10.6883    0.0000 C   0  0
   14.5849  -11.0969    0.0000 N   0  0
   15.2940  -10.6883    0.0000 C   0  0
   15.2940   -9.8670    0.0000 C   0  0
   16.0072   -9.4584    0.0000 C   0  0
   16.7163   -9.8670    0.0000 O   0  0
   16.7163  -10.6883    0.0000 C   0  0
   16.0072   -8.6371    0.0000 O   0  0
   16.0072  -11.0969    0.0000 O   0  0
   13.1667  -11.0969    0.0000 C   0  0
   12.4535  -10.6883    0.0000 C   0  0
   11.6763  -10.9389    0.0000 S   0  0
  1  2  2  0
  2  3  1  0
  3  4  2  0
  4  5  1  0
  5  6  1  0
  5  7  2  0
  7  8  1  0
  7  9  1  0
  3  9  1  0
  2 10  1  0
 10 11  1  0
 11 12  2  0
 12 13  1  0
 13 14  2  0
 14 15  1  0
 15 16  2  0
 16 17  1  0
 17 18  1  0
 18 19  1  0
 19 20  1  0
 20 21  1  0
 21 22  1  0
 20 23  2  0
 18 24  2  0
 16 25  1  0
 25 26  2  0
 13 26  1  0
 26 27  1  0
 11 27  1  0
M  END
> <From> 
www.bindingDB.org

> <BindingDB Reactant_set_id>
50524111

> <Ligand InChI>
InChI=1S/C16H12Cl2N4O4S/c1-26-13(24)6-12(23)19-7-2-3-9-11(4-7)27-16(21-9)22-15(25)10-5-8(17)14(18)20-10/h2-5,20H,6H2,1H3,(H,19,23)(H,21,22,25)

> <Ligand InChI Key>
FEXFEIAVWCZPHI-UHFFFAOYSA-N

> <BindingDB MonomerID>
50198298

> <BindingDB Ligand Name>
CHEMBL3917447

> <Target Name Assigned by Curator or DataSource>
DNA gyrase

> <Target Source Organism According to Curator or DataSource>
Staphylococcus aureus

> <Ki (nM)>


> <IC50 (nM)>
>100000

> <Kd (nM)>


> <EC50 (nM)>


> <kon (M-1-s-1)>


> <koff (s-1)>


> <pH>


> <Temp C>


> <Curation/DataSource>
ChEMBL

> <Article DOI>
10.1021/acs.jmedchem.6b00864

> <PMID>
27541007

> <PubChem AID>


> <Patent Number>


> <Authors>
Gjorgjieva, M; Tomaic, T; Barancokova, M; Katsamakas, S; Ila, J; Tammela, P; Peterlin Maic, L; Kikelj, D

> <Institution>
University of Ljubljana

> <Link to Ligand in BindingDB>
http://www.bindingdb.org/bind/chemsearch/marvin/MolStructure.jsp?monomerid=50198298

> <Link to Ligand-Target Pair in BindingDB>
http://www.bindingdb.org/jsp/dbsearch/PrimarySearch_ki.jsp?energyterm=kJ/mole&tag=pol&polymerid=2626&target=DNA+gyrase&column=ki&startPg=0&Increment=50&submit=Search

> <Link to Ligand-Target Pair in BindingDB>
http://www.bindingdb.org/jsp/dbsearch/PrimarySearch_ki.jsp?energyterm=kJ/mole&tag=r21&monomerid=50198298&enzyme=DNA+gyrase&column=ki&startPg=0&Increment=50&submit=Search

> <Ligand HET ID in PDB>


> <PDB ID(s) for Ligand-Target Complex>


> <PubChem CID>
134142193

> <PubChem SID>
375978196

> <ChEBI ID of Ligand>


> <ChEMBL ID of Ligand>


> <DrugBank ID of Ligand>


> <IUPHAR_GRAC ID of Ligand>


> <KEGG ID of Ligand>


> <ZINC ID of Ligand>


> <Number of Protein Chains in Target (>1 implies a multichain complex)>
1

> <BindingDB Target Chain Sequence>
MVTALSDVNNTDNYGAGQIQVLEGLEAVRKRPGMYIGSTSERGLHHLVWEIVDNSIDEALAGYANQIEVVIEKDNWIKVTDNGRGIPVDIQEKMGRPAVEVILTVLHAGGKFGGGGYKVSGGLHGVGSSVVNALSQDLEVYVHRNETIYHQAYKKGVPQFDLKEVGTTDKTGTVIRFKADGEIFTETTVYNYETLQQRIRELAFLNKGIQITLRDERDEENVREDSYHYEGGIKSYVELLNENKEPIHDEPIYIHQSKDDIEVEIAIQYNSGYATNLLTYANNIHTYEGGTHEDGFKRALTRVLNSYGLSSKIMKEEKDRLSGEDTREGMTAIISIKHGDPQFEGQTKTKLGNSEVRQVVDKLFSEHFERFLYENPQVARTVVEKGIMAARARVAAKKAREVTRRKSALDVASLPGKLADCSSKSPEECEIFLVEGDSAGGSTKSGRDSRTQAILPLRGKILNVEKARLDRILNNNEIRQMITAFGTGIGGDFDLAKARYHKIVIMTDADVDGAHIRTLLLTFFYRFMRPLIEAGYVYIAQPPLYKLTQGKQKYYVYNDRELDKLKSELNPTPKWSIARYKGLGEMNADQLWETTMNPEHRALLQVKLEDAIEADQTFEMLMGDVVENRRQFIEDNAVYANLDF

> <PDB ID(s) of Target Chain>


> <UniProt (SwissProt) Recommended Name of Target Chain>
DNA gyrase subunit B

> <UniProt (SwissProt) Entry Name of Target Chain>
GYRB_STAAU

> <UniProt (SwissProt) Primary ID of Target Chain>
P0A0K8

> <UniProt (SwissProt) Secondary ID(s) of Target Chain>
P20832

> <UniProt (SwissProt) Alternative ID(s) of Target Chain>


> <UniProt (TrEMBL) Submitted Name of Target Chain>


> <UniProt (TrEMBL) Entry Name of Target Chain>


> <UniProt (TrEMBL) Primary ID of Target Chain>


> <UniProt (TrEMBL) Secondary ID(s) of Target Chain>


> <UniProt (TrEMBL) Alternative ID(s) of Target Chain>


$$$$

  SciTegic12231719382D

 27 29  0  0  0  0            999 V2000
   10.7376   -8.9778    0.0000 O   0  0
   10.3290   -9.6869    0.0000 C   0  0
    9.5118   -9.6869    0.0000 C   0  0
    9.0317  -10.3460    0.0000 C   0  0
    8.2544  -10.0955    0.0000 C   0  0
    7.5912  -10.5756    0.0000 Cl  0  0
    8.2544   -9.2783    0.0000 C   0  0
    7.5912   -8.7981    0.0000 Cl  0  0
    9.0317   -9.0236    0.0000 N   0  0
   10.7376  -10.3960    0.0000 N   0  0
   11.5548  -10.3960    0.0000 C   0  0
   12.0349   -9.7327    0.0000 N   0  0
   12.8121   -9.9874    0.0000 C   0  0
   13.5171   -9.5788    0.0000 C   0  0
   14.2262   -9.9874    0.0000 C   0  0
   14.2262  -10.8046    0.0000 C   0  0
   14.9353  -11.2132    0.0000 N   0  0
   15.6444  -10.8046    0.0000 C   0  0
   15.6444   -9.9874    0.0000 C   0  0
   14.9353   -9.5788    0.0000 O   0  0
   14.9353   -8.7616    0.0000 C   0  0
   14.2262   -8.3530    0.0000 C   0  0
   16.3493   -9.5788    0.0000 O   0  0
   16.3493  -11.2132    0.0000 O   0  0
   13.5171  -11.2132    0.0000 C   0  0
   12.8121  -10.8046    0.0000 C   0  0
   12.0349  -11.0551    0.0000 S   0  0
  1  2  2  0
  2  3  1  0
  3  4  2  0
  4  5  1  0
  5  6  1  0
  5  7  2  0
  7  8  1  0
  7  9  1  0
  3  9  1  0
  2 10  1  0
 10 11  1  0
 11 12  2  0
 12 13  1  0
 13 14  2  0
 14 15  1  0
 15 16  2  0
 16 17  1  0
 17 18  1  0
 18 19  1  0
 19 20  1  0
 20 21  1  0
 21 22  1  0
 19 23  2  0
 18 24  2  0
 16 25  1  0
 25 26  2  0
 13 26  1  0
 26 27  1  0
 11 27  1  0
M  END
> <From> 
www.bindingDB.org

> <BindingDB Reactant_set_id>
50524112

> <Ligand InChI>
InChI=1S/C16H12Cl2N4O4S/c1-2-26-15(25)14(24)19-7-3-4-9-11(5-7)27-16(21-9)22-13(23)10-6-8(17)12(18)20-10/h3-6,20H,2H2,1H3,(H,19,24)(H,21,22,23)

> <Ligand InChI Key>
WBIHUNSWBFRVNN-UHFFFAOYSA-N

> <BindingDB MonomerID>
50198299

> <BindingDB Ligand Name>
CHEMBL3964980

> <Target Name Assigned by Curator or DataSource>
DNA gyrase

> <Target Source Organism According to Curator or DataSource>
Staphylococcus aureus

> <Ki (nM)>


> <IC50 (nM)>
>100000

> <Kd (nM)>


> <EC50 (nM)>


> <kon (M-1-s-1)>


> <koff (s-1)>


> <pH>


> <Temp C>


> <Curation/DataSource>
ChEMBL

> <Article DOI>
10.1021/acs.jmedchem.6b00864

> <PMID>
27541007

> <PubChem AID>


> <Patent Number>


> <Authors>
Gjorgjieva, M; Tomaic, T; Barancokova, M; Katsamakas, S; Ila, J; Tammela, P; Peterlin Maic, L; Kikelj, D

> <Institution>
University of Ljubljana

> <Link to Ligand in BindingDB>
http://www.bindingdb.org/bind/chemsearch/marvin/MolStructure.jsp?monomerid=50198299

> <Link to Ligand-Target Pair in BindingDB>
http://www.bindingdb.org/jsp/dbsearch/PrimarySearch_ki.jsp?energyterm=kJ/mole&tag=pol&polymerid=2626&target=DNA+gyrase&column=ki&startPg=0&Increment=50&submit=Search

> <Link to Ligand-Target Pair in BindingDB>
http://www.bindingdb.org/jsp/dbsearch/PrimarySearch_ki.jsp?energyterm=kJ/mole&tag=r21&monomerid=50198299&enzyme=DNA+gyrase&column=ki&startPg=0&Increment=50&submit=Search

> <Ligand HET ID in PDB>


> <PDB ID(s) for Ligand-Target Complex>


> <PubChem CID>
134150761

> <PubChem SID>
375978197

> <ChEBI ID of Ligand>


> <ChEMBL ID of Ligand>


> <DrugBank ID of Ligand>


> <IUPHAR_GRAC ID of Ligand>


> <KEGG ID of Ligand>


> <ZINC ID of Ligand>


> <Number of Protein Chains in Target (>1 implies a multichain complex)>
1

> <BindingDB Target Chain Sequence>
MVTALSDVNNTDNYGAGQIQVLEGLEAVRKRPGMYIGSTSERGLHHLVWEIVDNSIDEALAGYANQIEVVIEKDNWIKVTDNGRGIPVDIQEKMGRPAVEVILTVLHAGGKFGGGGYKVSGGLHGVGSSVVNALSQDLEVYVHRNETIYHQAYKKGVPQFDLKEVGTTDKTGTVIRFKADGEIFTETTVYNYETLQQRIRELAFLNKGIQITLRDERDEENVREDSYHYEGGIKSYVELLNENKEPIHDEPIYIHQSKDDIEVEIAIQYNSGYATNLLTYANNIHTYEGGTHEDGFKRALTRVLNSYGLSSKIMKEEKDRLSGEDTREGMTAIISIKHGDPQFEGQTKTKLGNSEVRQVVDKLFSEHFERFLYENPQVARTVVEKGIMAARARVAAKKAREVTRRKSALDVASLPGKLADCSSKSPEECEIFLVEGDSAGGSTKSGRDSRTQAILPLRGKILNVEKARLDRILNNNEIRQMITAFGTGIGGDFDLAKARYHKIVIMTDADVDGAHIRTLLLTFFYRFMRPLIEAGYVYIAQPPLYKLTQGKQKYYVYNDRELDKLKSELNPTPKWSIARYKGLGEMNADQLWETTMNPEHRALLQVKLEDAIEADQTFEMLMGDVVENRRQFIEDNAVYANLDF

> <PDB ID(s) of Target Chain>


> <UniProt (SwissProt) Recommended Name of Target Chain>
DNA gyrase subunit B

> <UniProt (SwissProt) Entry Name of Target Chain>
GYRB_STAAU

> <UniProt (SwissProt) Primary ID of Target Chain>
P0A0K8

> <UniProt (SwissProt) Secondary ID(s) of Target Chain>
P20832

> <UniProt (SwissProt) Alternative ID(s) of Target Chain>


> <UniProt (TrEMBL) Submitted Name of Target Chain>


> <UniProt (TrEMBL) Entry Name of Target Chain>


> <UniProt (TrEMBL) Primary ID of Target Chain>


> <UniProt (TrEMBL) Secondary ID(s) of Target Chain>


> <UniProt (TrEMBL) Alternative ID(s) of Target Chain>


$$$$

  SciTegic12211722142D

 27 29  0  0  0  0            999 V2000
    7.8370   -5.7276    0.0000 O   0  0
    7.4285   -6.4367    0.0000 C   0  0
    6.6113   -6.4367    0.0000 C   0  0
    6.1311   -7.0958    0.0000 C   0  0
    5.3539   -6.8453    0.0000 C   0  0
    4.6906   -7.3254    0.0000 Br  0  0
    5.3539   -6.0281    0.0000 C   0  0
    4.6906   -5.5479    0.0000 Br  0  0
    6.1311   -5.7775    0.0000 N   0  0
    7.8370   -7.1458    0.0000 N   0  0
    8.6542   -7.1458    0.0000 C   0  0
    9.1344   -6.4825    0.0000 N   0  0
    9.9116   -6.7372    0.0000 C   0  0
   10.6166   -6.3286    0.0000 C   0  0
   11.3257   -6.7372    0.0000 C   0  0
   11.3257   -7.5544    0.0000 C   0  0
   12.0348   -7.9630    0.0000 N   0  0
   12.7438   -7.5544    0.0000 C   0  0
   12.7438   -6.7372    0.0000 C   0  0
   12.0348   -6.3286    0.0000 O   0  0
   12.0348   -5.5114    0.0000 C   0  0
   11.3257   -5.1028    0.0000 C   0  0
   13.4488   -6.3286    0.0000 O   0  0
   13.4488   -7.9630    0.0000 O   0  0
   10.6166   -7.9630    0.0000 C   0  0
    9.9116   -7.5544    0.0000 C   0  0
    9.1344   -7.8049    0.0000 S   0  0
  1  2  2  0
  2  3  1  0
  3  4  2  0
  4  5  1  0
  5  6  1  0
  5  7  2  0
  7  8  1  0
  7  9  1  0
  3  9  1  0
  2 10  1  0
 10 11  1  0
 11 12  2  0
 12 13  1  0
 13 14  2  0
 14 15  1  0
 15 16  2  0
 16 17  1  0
 17 18  1  0
 18 19  1  0
 19 20  1  0
 20 21  1  0
 21 22  1  0
 19 23  2  0
 18 24  2  0
 16 25  1  0
 25 26  2  0
 13 26  1  0
 26 27  1  0
 11 27  1  0
M  END
> <From> 
www.bindingDB.org

> <BindingDB Reactant_set_id>
50524113

> <Ligand InChI>
InChI=1S/C16H12Br2N4O4S/c1-2-26-15(25)14(24)19-7-3-4-9-11(5-7)27-16(21-9)22-13(23)10-6-8(17)12(18)20-10/h3-6,20H,2H2,1H3,(H,19,24)(H,21,22,23)

> <Ligand InChI Key>
QGKSDBJSDISIPL-UHFFFAOYSA-N

> <BindingDB MonomerID>
50198300

> <BindingDB Ligand Name>
CHEMBL3935324

> <Target Name Assigned by Curator or DataSource>
DNA gyrase

> <Target Source Organism According to Curator or DataSource>
Staphylococcus aureus

> <Ki (nM)>


> <IC50 (nM)>
>100000

> <Kd (nM)>


> <EC50 (nM)>


> <kon (M-1-s-1)>


> <koff (s-1)>


> <pH>


> <Temp C>


> <Curation/DataSource>
ChEMBL

> <Article DOI>
10.1021/acs.jmedchem.6b00864

> <PMID>
27541007

> <PubChem AID>


> <Patent Number>


> <Authors>
Gjorgjieva, M; Tomaic, T; Barancokova, M; Katsamakas, S; Ila, J; Tammela, P; Peterlin Maic, L; Kikelj, D

> <Institution>
University of Ljubljana

> <Link to Ligand in BindingDB>
http://www.bindingdb.org/bind/chemsearch/marvin/MolStructure.jsp?monomerid=50198300

> <Link to Ligand-Target Pair in BindingDB>
http://www.bindingdb.org/jsp/dbsearch/PrimarySearch_ki.jsp?energyterm=kJ/mole&tag=pol&polymerid=2626&target=DNA+gyrase&column=ki&startPg=0&Increment=50&submit=Search

> <Link to Ligand-Target Pair in BindingDB>
http://www.bindingdb.org/jsp/dbsearch/PrimarySearch_ki.jsp?energyterm=kJ/mole&tag=r21&monomerid=50198300&enzyme=DNA+gyrase&column=ki&startPg=0&Increment=50&submit=Search

> <Ligand HET ID in PDB>


> <PDB ID(s) for Ligand-Target Complex>


> <PubChem CID>
134149146

> <PubChem SID>
375978198

> <ChEBI ID of Ligand>


> <ChEMBL ID of Ligand>


> <DrugBank ID of Ligand>


> <IUPHAR_GRAC ID of Ligand>


> <KEGG ID of Ligand>


> <ZINC ID of Ligand>


> <Number of Protein Chains in Target (>1 implies a multichain complex)>
1

> <BindingDB Target Chain Sequence>
MVTALSDVNNTDNYGAGQIQVLEGLEAVRKRPGMYIGSTSERGLHHLVWEIVDNSIDEALAGYANQIEVVIEKDNWIKVTDNGRGIPVDIQEKMGRPAVEVILTVLHAGGKFGGGGYKVSGGLHGVGSSVVNALSQDLEVYVHRNETIYHQAYKKGVPQFDLKEVGTTDKTGTVIRFKADGEIFTETTVYNYETLQQRIRELAFLNKGIQITLRDERDEENVREDSYHYEGGIKSYVELLNENKEPIHDEPIYIHQSKDDIEVEIAIQYNSGYATNLLTYANNIHTYEGGTHEDGFKRALTRVLNSYGLSSKIMKEEKDRLSGEDTREGMTAIISIKHGDPQFEGQTKTKLGNSEVRQVVDKLFSEHFERFLYENPQVARTVVEKGIMAARARVAAKKAREVTRRKSALDVASLPGKLADCSSKSPEECEIFLVEGDSAGGSTKSGRDSRTQAILPLRGKILNVEKARLDRILNNNEIRQMITAFGTGIGGDFDLAKARYHKIVIMTDADVDGAHIRTLLLTFFYRFMRPLIEAGYVYIAQPPLYKLTQGKQKYYVYNDRELDKLKSELNPTPKWSIARYKGLGEMNADQLWETTMNPEHRALLQVKLEDAIEADQTFEMLMGDVVENRRQFIEDNAVYANLDF

> <PDB ID(s) of Target Chain>


> <UniProt (SwissProt) Recommended Name of Target Chain>
DNA gyrase subunit B

> <UniProt (SwissProt) Entry Name of Target Chain>
GYRB_STAAU

> <UniProt (SwissProt) Primary ID of Target Chain>
P0A0K8

> <UniProt (SwissProt) Secondary ID(s) of Target Chain>
P20832

> <UniProt (SwissProt) Alternative ID(s) of Target Chain>


> <UniProt (TrEMBL) Submitted Name of Target Chain>


> <UniProt (TrEMBL) Entry Name of Target Chain>


> <UniProt (TrEMBL) Primary ID of Target Chain>


> <UniProt (TrEMBL) Secondary ID(s) of Target Chain>


> <UniProt (TrEMBL) Alternative ID(s) of Target Chain>


$$$$

  SciTegic12241701292D

 20 22  0  0  0  0            999 V2000
    6.7586   -9.3144    0.0000 N   0  0
    7.4771   -8.9217    0.0000 C   0  0
    7.4923   -8.1007    0.0000 C   0  0
    8.2150   -7.7079    0.0000 C   0  0
    8.9141   -8.1321    0.0000 C   0  0
    9.6996   -7.8955    0.0000 N   0  0
   10.1654   -8.5707    0.0000 C   0  0
   10.9865   -8.5860    0.0000 N   0  0
   11.4106   -7.8868    0.0000 C   0  0
   11.0178   -7.1683    0.0000 C   0  0
   10.2065   -7.0651    0.0000 C   0  0
   10.0505   -6.2571    0.0000 C   0  0
    9.3106   -5.9100    0.0000 Cl  0  0
   10.7690   -5.8644    0.0000 C   0  0
   10.8764   -5.0530    0.0000 Cl  0  0
   11.3691   -6.4284    0.0000 N   0  0
   12.2316   -7.9062    0.0000 O   0  0
    9.6672   -9.2216    0.0000 S   0  0
    8.8947   -8.9531    0.0000 C   0  0
    8.1762   -9.3458    0.0000 C   0  0
  1  2  1  0
  2  3  2  0
  3  4  1  0
  4  5  2  0
  5  6  1  0
  6  7  2  0
  7  8  1  0
  8  9  1  0
  9 10  1  0
 10 11  2  0
 11 12  1  0
 12 13  1  0
 12 14  2  0
 14 15  1  0
 14 16  1  0
 10 16  1  0
  9 17  2  0
  7 18  1  0
  5 19  1  0
 18 19  1  0
 19 20  2  0
  2 20  1  0
M  END
> <From> 
www.bindingDB.org

> <BindingDB Reactant_set_id>
50524114

> <Ligand InChI>
InChI=1S/C12H8Cl2N4OS/c13-6-4-8(16-10(6)14)11(19)18-12-17-7-2-1-5(15)3-9(7)20-12/h1-4,16H,15H2,(H,17,18,19)

> <Ligand InChI Key>
VQWCEMRHFCBWMO-UHFFFAOYSA-N

> <BindingDB MonomerID>
50198262

> <BindingDB Ligand Name>
CHEMBL3973760

> <Target Name Assigned by Curator or DataSource>
DNA gyrase

> <Target Source Organism According to Curator or DataSource>
Staphylococcus aureus

> <Ki (nM)>


> <IC50 (nM)>
>100000

> <Kd (nM)>


> <EC50 (nM)>


> <kon (M-1-s-1)>


> <koff (s-1)>


> <pH>


> <Temp C>


> <Curation/DataSource>
ChEMBL

> <Article DOI>
10.1021/acs.jmedchem.6b00864

> <PMID>
27541007

> <PubChem AID>


> <Patent Number>


> <Authors>
Gjorgjieva, M; Tomaic, T; Barancokova, M; Katsamakas, S; Ila, J; Tammela, P; Peterlin Maic, L; Kikelj, D

> <Institution>
University of Ljubljana

> <Link to Ligand in BindingDB>
http://www.bindingdb.org/bind/chemsearch/marvin/MolStructure.jsp?monomerid=50198262

> <Link to Ligand-Target Pair in BindingDB>
http://www.bindingdb.org/jsp/dbsearch/PrimarySearch_ki.jsp?energyterm=kJ/mole&tag=pol&polymerid=2626&target=DNA+gyrase&column=ki&startPg=0&Increment=50&submit=Search

> <Link to Ligand-Target Pair in BindingDB>
http://www.bindingdb.org/jsp/dbsearch/PrimarySearch_ki.jsp?energyterm=kJ/mole&tag=r21&monomerid=50198262&enzyme=DNA+gyrase&column=ki&startPg=0&Increment=50&submit=Search

> <Ligand HET ID in PDB>


> <PDB ID(s) for Ligand-Target Complex>


> <PubChem CID>
134153476

> <PubChem SID>
375978195

> <ChEBI ID of Ligand>


> <ChEMBL ID of Ligand>


> <DrugBank ID of Ligand>


> <IUPHAR_GRAC ID of Ligand>


> <KEGG ID of Ligand>


> <ZINC ID of Ligand>


> <Number of Protein Chains in Target (>1 implies a multichain complex)>
1

> <BindingDB Target Chain Sequence>
MVTALSDVNNTDNYGAGQIQVLEGLEAVRKRPGMYIGSTSERGLHHLVWEIVDNSIDEALAGYANQIEVVIEKDNWIKVTDNGRGIPVDIQEKMGRPAVEVILTVLHAGGKFGGGGYKVSGGLHGVGSSVVNALSQDLEVYVHRNETIYHQAYKKGVPQFDLKEVGTTDKTGTVIRFKADGEIFTETTVYNYETLQQRIRELAFLNKGIQITLRDERDEENVREDSYHYEGGIKSYVELLNENKEPIHDEPIYIHQSKDDIEVEIAIQYNSGYATNLLTYANNIHTYEGGTHEDGFKRALTRVLNSYGLSSKIMKEEKDRLSGEDTREGMTAIISIKHGDPQFEGQTKTKLGNSEVRQVVDKLFSEHFERFLYENPQVARTVVEKGIMAARARVAAKKAREVTRRKSALDVASLPGKLADCSSKSPEECEIFLVEGDSAGGSTKSGRDSRTQAILPLRGKILNVEKARLDRILNNNEIRQMITAFGTGIGGDFDLAKARYHKIVIMTDADVDGAHIRTLLLTFFYRFMRPLIEAGYVYIAQPPLYKLTQGKQKYYVYNDRELDKLKSELNPTPKWSIARYKGLGEMNADQLWETTMNPEHRALLQVKLEDAIEADQTFEMLMGDVVENRRQFIEDNAVYANLDF

> <PDB ID(s) of Target Chain>


> <UniProt (SwissProt) Recommended Name of Target Chain>
DNA gyrase subunit B

> <UniProt (SwissProt) Entry Name of Target Chain>
GYRB_STAAU

> <UniProt (SwissProt) Primary ID of Target Chain>
P0A0K8

> <UniProt (SwissProt) Secondary ID(s) of Target Chain>
P20832

> <UniProt (SwissProt) Alternative ID(s) of Target Chain>


> <UniProt (TrEMBL) Submitted Name of Target Chain>


> <UniProt (TrEMBL) Entry Name of Target Chain>


> <UniProt (TrEMBL) Primary ID of Target Chain>


> <UniProt (TrEMBL) Secondary ID(s) of Target Chain>


> <UniProt (TrEMBL) Alternative ID(s) of Target Chain>


$$$$

  SciTegic12241701162D

 27 29  0  0  0  0            999 V2000
   12.7395   -8.0563    0.0000 O   0  0
   13.1481   -8.7612    0.0000 C   0  0
   13.9653   -8.7612    0.0000 C   0  0
   14.3739   -8.0563    0.0000 C   0  0
   15.1911   -8.0563    0.0000 C   0  0
   15.5997   -8.7612    0.0000 O   0  0
   15.5997   -7.3472    0.0000 O   0  0
   12.7395   -9.4703    0.0000 N   0  0
   11.9223   -9.4703    0.0000 C   0  0
   11.4422   -8.8071    0.0000 N   0  0
   10.6650   -9.0617    0.0000 C   0  0
    9.9559   -8.6531    0.0000 C   0  0
    9.2468   -9.0617    0.0000 C   0  0
    9.2468   -9.8789    0.0000 C   0  0
    8.5418  -10.2875    0.0000 N   0  0
    7.8327   -9.8789    0.0000 C   0  0
    7.8327   -9.0617    0.0000 C   0  0
    8.4960   -8.5816    0.0000 C   0  0
    8.2413   -7.8044    0.0000 C   0  0
    8.7215   -7.1411    0.0000 Br  0  0
    7.4241   -7.8044    0.0000 C   0  0
    6.9440   -7.1411    0.0000 Br  0  0
    7.1695   -8.5816    0.0000 N   0  0
    7.1236  -10.2875    0.0000 O   0  0
    9.9559  -10.2875    0.0000 C   0  0
   10.6650   -9.8789    0.0000 C   0  0
   11.4422  -10.1295    0.0000 S   0  0
  1  2  2  0
  2  3  1  0
  3  4  1  0
  4  5  1  0
  5  6  1  0
  5  7  2  0
  2  8  1  0
  8  9  1  0
  9 10  2  0
 10 11  1  0
 11 12  2  0
 12 13  1  0
 13 14  2  0
 14 15  1  0
 15 16  1  0
 16 17  1  0
 17 18  2  0
 18 19  1  0
 19 20  1  0
 19 21  2  0
 21 22  1  0
 21 23  1  0
 17 23  1  0
 16 24  2  0
 14 25  1  0
 25 26  2  0
 11 26  1  0
 26 27  1  0
  9 27  1  0
M  END
> <From> 
www.bindingDB.org

> <BindingDB Reactant_set_id>
50524115

> <Ligand InChI>
InChI=1S/C16H12Br2N4O4S/c17-8-6-10(20-14(8)18)15(26)19-7-1-2-9-11(5-7)27-16(21-9)22-12(23)3-4-13(24)25/h1-2,5-6,20H,3-4H2,(H,19,26)(H,24,25)(H,21,22,23)

> <Ligand InChI Key>
JEJYVYOYQDMEQR-UHFFFAOYSA-N

> <BindingDB MonomerID>
50198315

> <BindingDB Ligand Name>
CHEMBL3973476

> <Target Name Assigned by Curator or DataSource>
DNA gyrase

> <Target Source Organism According to Curator or DataSource>
Staphylococcus aureus

> <Ki (nM)>


> <IC50 (nM)>
>100000

> <Kd (nM)>


> <EC50 (nM)>


> <kon (M-1-s-1)>


> <koff (s-1)>


> <pH>


> <Temp C>


> <Curation/DataSource>
ChEMBL

> <Article DOI>
10.1021/acs.jmedchem.6b00864

> <PMID>
27541007

> <PubChem AID>


> <Patent Number>


> <Authors>
Gjorgjieva, M; Tomaic, T; Barancokova, M; Katsamakas, S; Ila, J; Tammela, P; Peterlin Maic, L; Kikelj, D

> <Institution>
University of Ljubljana

> <Link to Ligand in BindingDB>
http://www.bindingdb.org/bind/chemsearch/marvin/MolStructure.jsp?monomerid=50198315

> <Link to Ligand-Target Pair in BindingDB>
http://www.bindingdb.org/jsp/dbsearch/PrimarySearch_ki.jsp?energyterm=kJ/mole&tag=pol&polymerid=2626&target=DNA+gyrase&column=ki&startPg=0&Increment=50&submit=Search

> <Link to Ligand-Target Pair in BindingDB>
http://www.bindingdb.org/jsp/dbsearch/PrimarySearch_ki.jsp?energyterm=kJ/mole&tag=r21&monomerid=50198315&enzyme=DNA+gyrase&column=ki&startPg=0&Increment=50&submit=Search

> <Ligand HET ID in PDB>


> <PDB ID(s) for Ligand-Target Complex>


> <PubChem CID>
134153043

> <PubChem SID>
375978199

> <ChEBI ID of Ligand>


> <ChEMBL ID of Ligand>


> <DrugBank ID of Ligand>


> <IUPHAR_GRAC ID of Ligand>


> <KEGG ID of Ligand>


> <ZINC ID of Ligand>


> <Number of Protein Chains in Target (>1 implies a multichain complex)>
1

> <BindingDB Target Chain Sequence>
MVTALSDVNNTDNYGAGQIQVLEGLEAVRKRPGMYIGSTSERGLHHLVWEIVDNSIDEALAGYANQIEVVIEKDNWIKVTDNGRGIPVDIQEKMGRPAVEVILTVLHAGGKFGGGGYKVSGGLHGVGSSVVNALSQDLEVYVHRNETIYHQAYKKGVPQFDLKEVGTTDKTGTVIRFKADGEIFTETTVYNYETLQQRIRELAFLNKGIQITLRDERDEENVREDSYHYEGGIKSYVELLNENKEPIHDEPIYIHQSKDDIEVEIAIQYNSGYATNLLTYANNIHTYEGGTHEDGFKRALTRVLNSYGLSSKIMKEEKDRLSGEDTREGMTAIISIKHGDPQFEGQTKTKLGNSEVRQVVDKLFSEHFERFLYENPQVARTVVEKGIMAARARVAAKKAREVTRRKSALDVASLPGKLADCSSKSPEECEIFLVEGDSAGGSTKSGRDSRTQAILPLRGKILNVEKARLDRILNNNEIRQMITAFGTGIGGDFDLAKARYHKIVIMTDADVDGAHIRTLLLTFFYRFMRPLIEAGYVYIAQPPLYKLTQGKQKYYVYNDRELDKLKSELNPTPKWSIARYKGLGEMNADQLWETTMNPEHRALLQVKLEDAIEADQTFEMLMGDVVENRRQFIEDNAVYANLDF

> <PDB ID(s) of Target Chain>


> <UniProt (SwissProt) Recommended Name of Target Chain>
DNA gyrase subunit B

> <UniProt (SwissProt) Entry Name of Target Chain>
GYRB_STAAU

> <UniProt (SwissProt) Primary ID of Target Chain>
P0A0K8

> <UniProt (SwissProt) Secondary ID(s) of Target Chain>
P20832

> <UniProt (SwissProt) Alternative ID(s) of Target Chain>


> <UniProt (TrEMBL) Submitted Name of Target Chain>


> <UniProt (TrEMBL) Entry Name of Target Chain>


> <UniProt (TrEMBL) Primary ID of Target Chain>


> <UniProt (TrEMBL) Secondary ID(s) of Target Chain>


> <UniProt (TrEMBL) Alternative ID(s) of Target Chain>


$$$$

  SciTegic12221706412D

 27 29  0  0  0  0            999 V2000
   11.9043   -7.1536    0.0000 O   0  0
   12.3129   -7.8627    0.0000 C   0  0
   13.1301   -7.8627    0.0000 C   0  0
   13.5387   -7.1536    0.0000 C   0  0
   14.3559   -7.1536    0.0000 O   0  0
   14.7645   -7.8627    0.0000 C   0  0
   13.1301   -6.4486    0.0000 O   0  0
   11.9043   -8.5718    0.0000 N   0  0
   11.0871   -8.5718    0.0000 C   0  0
   10.6070   -7.9085    0.0000 N   0  0
    9.8297   -8.1632    0.0000 C   0  0
    9.1207   -7.7546    0.0000 C   0  0
    8.4116   -8.1632    0.0000 C   0  0
    8.4116   -8.9804    0.0000 C   0  0
    7.7066   -9.3890    0.0000 N   0  0
    6.9975   -8.9804    0.0000 C   0  0
    6.9975   -8.1632    0.0000 C   0  0
    7.6567   -7.6830    0.0000 C   0  0
    7.4061   -6.9058    0.0000 C   0  0
    7.8863   -6.2426    0.0000 Cl  0  0
    6.5889   -6.9058    0.0000 C   0  0
    6.1088   -6.2426    0.0000 Cl  0  0
    6.3384   -7.6830    0.0000 N   0  0
    6.2884   -9.3890    0.0000 O   0  0
    9.1207   -9.3890    0.0000 C   0  0
    9.8297   -8.9804    0.0000 C   0  0
   10.6070   -9.2309    0.0000 S   0  0
  1  2  2  0
  2  3  1  0
  3  4  1  0
  4  5  1  0
  5  6  1  0
  4  7  2  0
  2  8  1  0
  8  9  1  0
  9 10  2  0
 10 11  1  0
 11 12  2  0
 12 13  1  0
 13 14  2  0
 14 15  1  0
 15 16  1  0
 16 17  1  0
 17 18  2  0
 18 19  1  0
 19 20  1  0
 19 21  2  0
 21 22  1  0
 21 23  1  0
 17 23  1  0
 16 24  2  0
 14 25  1  0
 25 26  2  0
 11 26  1  0
 26 27  1  0
  9 27  1  0
M  END
> <From> 
www.bindingDB.org

> <BindingDB Reactant_set_id>
50524116

> <Ligand InChI>
InChI=1S/C16H12Cl2N4O4S/c1-26-13(24)6-12(23)22-16-21-9-3-2-7(4-11(9)27-16)19-15(25)10-5-8(17)14(18)20-10/h2-5,20H,6H2,1H3,(H,19,25)(H,21,22,23)

> <Ligand InChI Key>
PLQBXIFVOKFZHW-UHFFFAOYSA-N

> <BindingDB MonomerID>
50198316

> <BindingDB Ligand Name>
CHEMBL3948353

> <Target Name Assigned by Curator or DataSource>
DNA gyrase

> <Target Source Organism According to Curator or DataSource>
Staphylococcus aureus

> <Ki (nM)>


> <IC50 (nM)>
>100000

> <Kd (nM)>


> <EC50 (nM)>


> <kon (M-1-s-1)>


> <koff (s-1)>


> <pH>


> <Temp C>


> <Curation/DataSource>
ChEMBL

> <Article DOI>
10.1021/acs.jmedchem.6b00864

> <PMID>
27541007

> <PubChem AID>


> <Patent Number>


> <Authors>
Gjorgjieva, M; Tomaic, T; Barancokova, M; Katsamakas, S; Ila, J; Tammela, P; Peterlin Maic, L; Kikelj, D

> <Institution>
University of Ljubljana

> <Link to Ligand in BindingDB>
http://www.bindingdb.org/bind/chemsearch/marvin/MolStructure.jsp?monomerid=50198316

> <Link to Ligand-Target Pair in BindingDB>
http://www.bindingdb.org/jsp/dbsearch/PrimarySearch_ki.jsp?energyterm=kJ/mole&tag=pol&polymerid=2626&target=DNA+gyrase&column=ki&startPg=0&Increment=50&submit=Search

> <Link to Ligand-Target Pair in BindingDB>
http://www.bindingdb.org/jsp/dbsearch/PrimarySearch_ki.jsp?energyterm=kJ/mole&tag=r21&monomerid=50198316&enzyme=DNA+gyrase&column=ki&startPg=0&Increment=50&submit=Search

> <Ligand HET ID in PDB>


> <PDB ID(s) for Ligand-Target Complex>


> <PubChem CID>
134146890

> <PubChem SID>
375978200

> <ChEBI ID of Ligand>


> <ChEMBL ID of Ligand>


> <DrugBank ID of Ligand>


> <IUPHAR_GRAC ID of Ligand>


> <KEGG ID of Ligand>


> <ZINC ID of Ligand>


> <Number of Protein Chains in Target (>1 implies a multichain complex)>
1

> <BindingDB Target Chain Sequence>
MVTALSDVNNTDNYGAGQIQVLEGLEAVRKRPGMYIGSTSERGLHHLVWEIVDNSIDEALAGYANQIEVVIEKDNWIKVTDNGRGIPVDIQEKMGRPAVEVILTVLHAGGKFGGGGYKVSGGLHGVGSSVVNALSQDLEVYVHRNETIYHQAYKKGVPQFDLKEVGTTDKTGTVIRFKADGEIFTETTVYNYETLQQRIRELAFLNKGIQITLRDERDEENVREDSYHYEGGIKSYVELLNENKEPIHDEPIYIHQSKDDIEVEIAIQYNSGYATNLLTYANNIHTYEGGTHEDGFKRALTRVLNSYGLSSKIMKEEKDRLSGEDTREGMTAIISIKHGDPQFEGQTKTKLGNSEVRQVVDKLFSEHFERFLYENPQVARTVVEKGIMAARARVAAKKAREVTRRKSALDVASLPGKLADCSSKSPEECEIFLVEGDSAGGSTKSGRDSRTQAILPLRGKILNVEKARLDRILNNNEIRQMITAFGTGIGGDFDLAKARYHKIVIMTDADVDGAHIRTLLLTFFYRFMRPLIEAGYVYIAQPPLYKLTQGKQKYYVYNDRELDKLKSELNPTPKWSIARYKGLGEMNADQLWETTMNPEHRALLQVKLEDAIEADQTFEMLMGDVVENRRQFIEDNAVYANLDF

> <PDB ID(s) of Target Chain>


> <UniProt (SwissProt) Recommended Name of Target Chain>
DNA gyrase subunit B

> <UniProt (SwissProt) Entry Name of Target Chain>
GYRB_STAAU

> <UniProt (SwissProt) Primary ID of Target Chain>
P0A0K8

> <UniProt (SwissProt) Secondary ID(s) of Target Chain>
P20832

> <UniProt (SwissProt) Alternative ID(s) of Target Chain>


> <UniProt (TrEMBL) Submitted Name of Target Chain>


> <UniProt (TrEMBL) Entry Name of Target Chain>


> <UniProt (TrEMBL) Primary ID of Target Chain>


> <UniProt (TrEMBL) Secondary ID(s) of Target Chain>


> <UniProt (TrEMBL) Alternative ID(s) of Target Chain>


$$$$

  SciTegic12221704422D

 28 30  0  0  0  0            999 V2000
   10.0246  -11.1414    0.0000 O   0  0
    9.6160  -10.4323    0.0000 C   0  0
    8.7988  -10.4323    0.0000 C   0  0
    8.3186   -9.7732    0.0000 C   0  0
    7.5414  -10.0237    0.0000 C   0  0
    6.8823   -9.5436    0.0000 Cl  0  0
    7.5414  -10.8409    0.0000 C   0  0
    6.8823  -11.3210    0.0000 Cl  0  0
    8.3186  -11.0914    0.0000 N   0  0
   10.0246   -9.7232    0.0000 N   0  0
   10.8418   -9.7232    0.0000 C   0  0
   11.3219  -10.3865    0.0000 N   0  0
   12.0991  -10.1318    0.0000 C   0  0
   12.8082  -10.5404    0.0000 C   0  0
   13.5132  -10.1318    0.0000 C   0  0
   13.5132   -9.3146    0.0000 C   0  0
   14.2223   -8.9060    0.0000 N   0  0
   14.9314   -9.3146    0.0000 C   0  0
   14.9314  -10.1318    0.0000 C   0  0
   15.6404  -10.5404    0.0000 C   0  0
   16.3454  -10.1318    0.0000 C   0  0
   17.0545  -10.5404    0.0000 O   0  0
   17.0545  -11.3576    0.0000 C   0  0
   16.3454   -9.3146    0.0000 O   0  0
   15.6404   -8.9060    0.0000 O   0  0
   12.8082   -8.9060    0.0000 C   0  0
   12.0991   -9.3146    0.0000 C   0  0
   11.3219   -9.0641    0.0000 S   0  0
  1  2  2  0
  2  3  1  0
  3  4  2  0
  4  5  1  0
  5  6  1  0
  5  7  2  0
  7  8  1  0
  7  9  1  0
  3  9  1  0
  2 10  1  0
 10 11  1  0
 11 12  2  0
 12 13  1  0
 13 14  2  0
 14 15  1  0
 15 16  2  0
 16 17  1  0
 17 18  1  0
 18 19  1  0
 19 20  1  0
 20 21  1  0
 21 22  1  0
 22 23  1  0
 21 24  2  0
 18 25  2  0
 16 26  1  0
 26 27  2  0
 13 27  1  0
 27 28  1  0
 11 28  1  0
M  END
> <From> 
www.bindingDB.org

> <BindingDB Reactant_set_id>
50524125

> <Ligand InChI>
InChI=1S/C17H14Cl2N4O4S/c1-27-14(25)5-4-13(24)20-8-2-3-10-12(6-8)28-17(22-10)23-16(26)11-7-9(18)15(19)21-11/h2-3,6-7,21H,4-5H2,1H3,(H,20,24)(H,22,23,26)

> <Ligand InChI Key>
SUKOIIJJKMQGFR-UHFFFAOYSA-N

> <BindingDB MonomerID>
50198242

> <BindingDB Ligand Name>
CHEMBL3945326

> <Target Name Assigned by Curator or DataSource>
DNA gyrase

> <Target Source Organism According to Curator or DataSource>
Staphylococcus aureus

> <Ki (nM)>


> <IC50 (nM)>
>100000

> <Kd (nM)>


> <EC50 (nM)>


> <kon (M-1-s-1)>


> <koff (s-1)>


> <pH>


> <Temp C>


> <Curation/DataSource>
ChEMBL

> <Article DOI>
10.1021/acs.jmedchem.6b00864

> <PMID>
27541007

> <PubChem AID>


> <Patent Number>


> <Authors>
Gjorgjieva, M; Tomaic, T; Barancokova, M; Katsamakas, S; Ila, J; Tammela, P; Peterlin Maic, L; Kikelj, D

> <Institution>
University of Ljubljana

> <Link to Ligand in BindingDB>
http://www.bindingdb.org/bind/chemsearch/marvin/MolStructure.jsp?monomerid=50198242

> <Link to Ligand-Target Pair in BindingDB>
http://www.bindingdb.org/jsp/dbsearch/PrimarySearch_ki.jsp?energyterm=kJ/mole&tag=pol&polymerid=2626&target=DNA+gyrase&column=ki&startPg=0&Increment=50&submit=Search

> <Link to Ligand-Target Pair in BindingDB>
http://www.bindingdb.org/jsp/dbsearch/PrimarySearch_ki.jsp?energyterm=kJ/mole&tag=r21&monomerid=50198242&enzyme=DNA+gyrase&column=ki&startPg=0&Increment=50&submit=Search

> <Ligand HET ID in PDB>


> <PDB ID(s) for Ligand-Target Complex>


> <PubChem CID>
134146448

> <PubChem SID>
375978194

> <ChEBI ID of Ligand>


> <ChEMBL ID of Ligand>


> <DrugBank ID of Ligand>


> <IUPHAR_GRAC ID of Ligand>


> <KEGG ID of Ligand>


> <ZINC ID of Ligand>


> <Number of Protein Chains in Target (>1 implies a multichain complex)>
1

> <BindingDB Target Chain Sequence>
MVTALSDVNNTDNYGAGQIQVLEGLEAVRKRPGMYIGSTSERGLHHLVWEIVDNSIDEALAGYANQIEVVIEKDNWIKVTDNGRGIPVDIQEKMGRPAVEVILTVLHAGGKFGGGGYKVSGGLHGVGSSVVNALSQDLEVYVHRNETIYHQAYKKGVPQFDLKEVGTTDKTGTVIRFKADGEIFTETTVYNYETLQQRIRELAFLNKGIQITLRDERDEENVREDSYHYEGGIKSYVELLNENKEPIHDEPIYIHQSKDDIEVEIAIQYNSGYATNLLTYANNIHTYEGGTHEDGFKRALTRVLNSYGLSSKIMKEEKDRLSGEDTREGMTAIISIKHGDPQFEGQTKTKLGNSEVRQVVDKLFSEHFERFLYENPQVARTVVEKGIMAARARVAAKKAREVTRRKSALDVASLPGKLADCSSKSPEECEIFLVEGDSAGGSTKSGRDSRTQAILPLRGKILNVEKARLDRILNNNEIRQMITAFGTGIGGDFDLAKARYHKIVIMTDADVDGAHIRTLLLTFFYRFMRPLIEAGYVYIAQPPLYKLTQGKQKYYVYNDRELDKLKSELNPTPKWSIARYKGLGEMNADQLWETTMNPEHRALLQVKLEDAIEADQTFEMLMGDVVENRRQFIEDNAVYANLDF

> <PDB ID(s) of Target Chain>


> <UniProt (SwissProt) Recommended Name of Target Chain>
DNA gyrase subunit B

> <UniProt (SwissProt) Entry Name of Target Chain>
GYRB_STAAU

> <UniProt (SwissProt) Primary ID of Target Chain>
P0A0K8

> <UniProt (SwissProt) Secondary ID(s) of Target Chain>
P20832

> <UniProt (SwissProt) Alternative ID(s) of Target Chain>


> <UniProt (TrEMBL) Submitted Name of Target Chain>


> <UniProt (TrEMBL) Entry Name of Target Chain>


> <UniProt (TrEMBL) Primary ID of Target Chain>


> <UniProt (TrEMBL) Secondary ID(s) of Target Chain>


> <UniProt (TrEMBL) Alternative ID(s) of Target Chain>


$$$$

  SciTegic12211712072D

 27 29  0  0  0  0            999 V2000
   11.6691   -7.4673    0.0000 O   0  0
   12.0777   -8.1764    0.0000 C   0  0
   12.8948   -8.1764    0.0000 C   0  0
   13.3034   -8.8855    0.0000 O   0  0
   14.1206   -8.8855    0.0000 C   0  0
   14.5292   -9.5904    0.0000 C   0  0
   13.3034   -7.4673    0.0000 O   0  0
   11.6691   -8.8855    0.0000 N   0  0
   10.8519   -8.8855    0.0000 C   0  0
   10.3717   -8.2222    0.0000 N   0  0
    9.5945   -8.4769    0.0000 C   0  0
    8.8854   -8.0683    0.0000 C   0  0
    8.1763   -8.4769    0.0000 C   0  0
    8.1763   -9.2941    0.0000 C   0  0
    7.4714   -9.7026    0.0000 N   0  0
    6.7623   -9.2941    0.0000 C   0  0
    6.7623   -8.4769    0.0000 C   0  0
    7.4214   -7.9967    0.0000 C   0  0
    7.1709   -7.2195    0.0000 C   0  0
    7.6510   -6.5562    0.0000 Cl  0  0
    6.3537   -7.2195    0.0000 C   0  0
    5.8735   -6.5562    0.0000 Cl  0  0
    6.1031   -7.9967    0.0000 N   0  0
    6.0532   -9.7026    0.0000 O   0  0
    8.8854   -9.7026    0.0000 C   0  0
    9.5945   -9.2941    0.0000 C   0  0
   10.3717   -9.5446    0.0000 S   0  0
  1  2  2  0
  2  3  1  0
  3  4  1  0
  4  5  1  0
  5  6  1  0
  3  7  2  0
  2  8  1  0
  8  9  1  0
  9 10  2  0
 10 11  1  0
 11 12  2  0
 12 13  1  0
 13 14  2  0
 14 15  1  0
 15 16  1  0
 16 17  1  0
 17 18  2  0
 18 19  1  0
 19 20  1  0
 19 21  2  0
 21 22  1  0
 21 23  1  0
 17 23  1  0
 16 24  2  0
 14 25  1  0
 25 26  2  0
 11 26  1  0
 26 27  1  0
  9 27  1  0
M  END
> <From> 
www.bindingDB.org

> <BindingDB Reactant_set_id>
50524127

> <Ligand InChI>
InChI=1S/C16H12Cl2N4O4S/c1-2-26-15(25)14(24)22-16-21-9-4-3-7(5-11(9)27-16)19-13(23)10-6-8(17)12(18)20-10/h3-6,20H,2H2,1H3,(H,19,23)(H,21,22,24)

> <Ligand InChI Key>
RHSZXRQVJPPQHW-UHFFFAOYSA-N

> <BindingDB MonomerID>
50198239

> <BindingDB Ligand Name>
CHEMBL3921420

> <Target Name Assigned by Curator or DataSource>
DNA gyrase

> <Target Source Organism According to Curator or DataSource>
Staphylococcus aureus

> <Ki (nM)>


> <IC50 (nM)>
>100000

> <Kd (nM)>


> <EC50 (nM)>


> <kon (M-1-s-1)>


> <koff (s-1)>


> <pH>


> <Temp C>


> <Curation/DataSource>
ChEMBL

> <Article DOI>
10.1021/acs.jmedchem.6b00864

> <PMID>
27541007

> <PubChem AID>


> <Patent Number>


> <Authors>
Gjorgjieva, M; Tomaic, T; Barancokova, M; Katsamakas, S; Ila, J; Tammela, P; Peterlin Maic, L; Kikelj, D

> <Institution>
University of Ljubljana

> <Link to Ligand in BindingDB>
http://www.bindingdb.org/bind/chemsearch/marvin/MolStructure.jsp?monomerid=50198239

> <Link to Ligand-Target Pair in BindingDB>
http://www.bindingdb.org/jsp/dbsearch/PrimarySearch_ki.jsp?energyterm=kJ/mole&tag=pol&polymerid=2626&target=DNA+gyrase&column=ki&startPg=0&Increment=50&submit=Search

> <Link to Ligand-Target Pair in BindingDB>
http://www.bindingdb.org/jsp/dbsearch/PrimarySearch_ki.jsp?energyterm=kJ/mole&tag=r21&monomerid=50198239&enzyme=DNA+gyrase&column=ki&startPg=0&Increment=50&submit=Search

> <Ligand HET ID in PDB>


> <PDB ID(s) for Ligand-Target Complex>


> <PubChem CID>
134140511

> <PubChem SID>
375978191

> <ChEBI ID of Ligand>


> <ChEMBL ID of Ligand>


> <DrugBank ID of Ligand>


> <IUPHAR_GRAC ID of Ligand>


> <KEGG ID of Ligand>


> <ZINC ID of Ligand>


> <Number of Protein Chains in Target (>1 implies a multichain complex)>
1

> <BindingDB Target Chain Sequence>
MVTALSDVNNTDNYGAGQIQVLEGLEAVRKRPGMYIGSTSERGLHHLVWEIVDNSIDEALAGYANQIEVVIEKDNWIKVTDNGRGIPVDIQEKMGRPAVEVILTVLHAGGKFGGGGYKVSGGLHGVGSSVVNALSQDLEVYVHRNETIYHQAYKKGVPQFDLKEVGTTDKTGTVIRFKADGEIFTETTVYNYETLQQRIRELAFLNKGIQITLRDERDEENVREDSYHYEGGIKSYVELLNENKEPIHDEPIYIHQSKDDIEVEIAIQYNSGYATNLLTYANNIHTYEGGTHEDGFKRALTRVLNSYGLSSKIMKEEKDRLSGEDTREGMTAIISIKHGDPQFEGQTKTKLGNSEVRQVVDKLFSEHFERFLYENPQVARTVVEKGIMAARARVAAKKAREVTRRKSALDVASLPGKLADCSSKSPEECEIFLVEGDSAGGSTKSGRDSRTQAILPLRGKILNVEKARLDRILNNNEIRQMITAFGTGIGGDFDLAKARYHKIVIMTDADVDGAHIRTLLLTFFYRFMRPLIEAGYVYIAQPPLYKLTQGKQKYYVYNDRELDKLKSELNPTPKWSIARYKGLGEMNADQLWETTMNPEHRALLQVKLEDAIEADQTFEMLMGDVVENRRQFIEDNAVYANLDF

> <PDB ID(s) of Target Chain>


> <UniProt (SwissProt) Recommended Name of Target Chain>
DNA gyrase subunit B

> <UniProt (SwissProt) Entry Name of Target Chain>
GYRB_STAAU

> <UniProt (SwissProt) Primary ID of Target Chain>
P0A0K8

> <UniProt (SwissProt) Secondary ID(s) of Target Chain>
P20832

> <UniProt (SwissProt) Alternative ID(s) of Target Chain>


> <UniProt (TrEMBL) Submitted Name of Target Chain>


> <UniProt (TrEMBL) Entry Name of Target Chain>


> <UniProt (TrEMBL) Primary ID of Target Chain>


> <UniProt (TrEMBL) Secondary ID(s) of Target Chain>


> <UniProt (TrEMBL) Alternative ID(s) of Target Chain>


$$$$

  SciTegic12211715342D

 28 30  0  0  0  0            999 V2000
    7.8894   -8.7600    0.0000 O   0  0
    7.4808   -8.0509    0.0000 C   0  0
    6.6636   -8.0509    0.0000 C   0  0
    6.1835   -7.3917    0.0000 C   0  0
    5.4063   -7.6423    0.0000 C   0  0
    4.7471   -7.1621    0.0000 Br  0  0
    5.4063   -8.4595    0.0000 C   0  0
    4.7471   -8.9396    0.0000 Br  0  0
    6.1835   -8.7100    0.0000 N   0  0
    7.8894   -7.3418    0.0000 N   0  0
    8.7066   -7.3418    0.0000 C   0  0
    9.1868   -8.0051    0.0000 N   0  0
    9.9640   -7.7504    0.0000 C   0  0
   10.6731   -8.1590    0.0000 C   0  0
   11.3822   -7.7504    0.0000 C   0  0
   11.3822   -6.9332    0.0000 C   0  0
   12.0871   -6.5246    0.0000 N   0  0
   12.7962   -6.9332    0.0000 C   0  0
   12.7962   -7.7504    0.0000 C   0  0
   13.5053   -8.1590    0.0000 C   0  0
   14.2103   -7.7504    0.0000 C   0  0
   14.9194   -8.1590    0.0000 O   0  0
   14.9194   -8.9762    0.0000 C   0  0
   14.2103   -6.9332    0.0000 O   0  0
   13.5053   -6.5246    0.0000 O   0  0
   10.6731   -6.5246    0.0000 C   0  0
    9.9640   -6.9332    0.0000 C   0  0
    9.1868   -6.6827    0.0000 S   0  0
  1  2  2  0
  2  3  1  0
  3  4  2  0
  4  5  1  0
  5  6  1  0
  5  7  2  0
  7  8  1  0
  7  9  1  0
  3  9  1  0
  2 10  1  0
 10 11  1  0
 11 12  2  0
 12 13  1  0
 13 14  2  0
 14 15  1  0
 15 16  2  0
 16 17  1  0
 17 18  1  0
 18 19  1  0
 19 20  1  0
 20 21  1  0
 21 22  1  0
 22 23  1  0
 21 24  2  0
 18 25  2  0
 16 26  1  0
 26 27  2  0
 13 27  1  0
 27 28  1  0
 11 28  1  0
M  END
> <From> 
www.bindingDB.org

> <BindingDB Reactant_set_id>
50524132

> <Ligand InChI>
InChI=1S/C17H14Br2N4O4S/c1-27-14(25)5-4-13(24)20-8-2-3-10-12(6-8)28-17(22-10)23-16(26)11-7-9(18)15(19)21-11/h2-3,6-7,21H,4-5H2,1H3,(H,20,24)(H,22,23,26)

> <Ligand InChI Key>
QAYLSVAIAFXWJM-UHFFFAOYSA-N

> <BindingDB MonomerID>
50198318

> <BindingDB Ligand Name>
CHEMBL3926428

> <Target Name Assigned by Curator or DataSource>
DNA gyrase

> <Target Source Organism According to Curator or DataSource>
Staphylococcus aureus

> <Ki (nM)>


> <IC50 (nM)>
>100000

> <Kd (nM)>


> <EC50 (nM)>


> <kon (M-1-s-1)>


> <koff (s-1)>


> <pH>


> <Temp C>


> <Curation/DataSource>
ChEMBL

> <Article DOI>
10.1021/acs.jmedchem.6b00864

> <PMID>
27541007

> <PubChem AID>


> <Patent Number>


> <Authors>
Gjorgjieva, M; Tomaic, T; Barancokova, M; Katsamakas, S; Ila, J; Tammela, P; Peterlin Maic, L; Kikelj, D

> <Institution>
University of Ljubljana

> <Link to Ligand in BindingDB>
http://www.bindingdb.org/bind/chemsearch/marvin/MolStructure.jsp?monomerid=50198318

> <Link to Ligand-Target Pair in BindingDB>
http://www.bindingdb.org/jsp/dbsearch/PrimarySearch_ki.jsp?energyterm=kJ/mole&tag=pol&polymerid=2626&target=DNA+gyrase&column=ki&startPg=0&Increment=50&submit=Search

> <Link to Ligand-Target Pair in BindingDB>
http://www.bindingdb.org/jsp/dbsearch/PrimarySearch_ki.jsp?energyterm=kJ/mole&tag=r21&monomerid=50198318&enzyme=DNA+gyrase&column=ki&startPg=0&Increment=50&submit=Search

> <Ligand HET ID in PDB>


> <PDB ID(s) for Ligand-Target Complex>


> <PubChem CID>
134141683

> <PubChem SID>
375978202

> <ChEBI ID of Ligand>


> <ChEMBL ID of Ligand>


> <DrugBank ID of Ligand>


> <IUPHAR_GRAC ID of Ligand>


> <KEGG ID of Ligand>


> <ZINC ID of Ligand>


> <Number of Protein Chains in Target (>1 implies a multichain complex)>
1

> <BindingDB Target Chain Sequence>
MVTALSDVNNTDNYGAGQIQVLEGLEAVRKRPGMYIGSTSERGLHHLVWEIVDNSIDEALAGYANQIEVVIEKDNWIKVTDNGRGIPVDIQEKMGRPAVEVILTVLHAGGKFGGGGYKVSGGLHGVGSSVVNALSQDLEVYVHRNETIYHQAYKKGVPQFDLKEVGTTDKTGTVIRFKADGEIFTETTVYNYETLQQRIRELAFLNKGIQITLRDERDEENVREDSYHYEGGIKSYVELLNENKEPIHDEPIYIHQSKDDIEVEIAIQYNSGYATNLLTYANNIHTYEGGTHEDGFKRALTRVLNSYGLSSKIMKEEKDRLSGEDTREGMTAIISIKHGDPQFEGQTKTKLGNSEVRQVVDKLFSEHFERFLYENPQVARTVVEKGIMAARARVAAKKAREVTRRKSALDVASLPGKLADCSSKSPEECEIFLVEGDSAGGSTKSGRDSRTQAILPLRGKILNVEKARLDRILNNNEIRQMITAFGTGIGGDFDLAKARYHKIVIMTDADVDGAHIRTLLLTFFYRFMRPLIEAGYVYIAQPPLYKLTQGKQKYYVYNDRELDKLKSELNPTPKWSIARYKGLGEMNADQLWETTMNPEHRALLQVKLEDAIEADQTFEMLMGDVVENRRQFIEDNAVYANLDF

> <PDB ID(s) of Target Chain>


> <UniProt (SwissProt) Recommended Name of Target Chain>
DNA gyrase subunit B

> <UniProt (SwissProt) Entry Name of Target Chain>
GYRB_STAAU

> <UniProt (SwissProt) Primary ID of Target Chain>
P0A0K8

> <UniProt (SwissProt) Secondary ID(s) of Target Chain>
P20832

> <UniProt (SwissProt) Alternative ID(s) of Target Chain>


> <UniProt (TrEMBL) Submitted Name of Target Chain>


> <UniProt (TrEMBL) Entry Name of Target Chain>


> <UniProt (TrEMBL) Primary ID of Target Chain>


> <UniProt (TrEMBL) Secondary ID(s) of Target Chain>


> <UniProt (TrEMBL) Alternative ID(s) of Target Chain>


$$$$

  SciTegic12221704012D

 20 22  0  0  0  0            999 V2000
   11.3468   -8.7013    0.0000 N   0  0
   10.6419   -8.2926    0.0000 C   0  0
   10.6420   -7.4754    0.0000 C   0  0
    9.9330   -7.0667    0.0000 C   0  0
    9.2280   -7.4752    0.0000 C   0  0
    8.4467   -7.2204    0.0000 N   0  0
    7.9664   -7.8836    0.0000 C   0  0
    7.1492   -7.8834    0.0000 N   0  0
    6.7407   -7.1743    0.0000 C   0  0
    7.1495   -6.4653    0.0000 C   0  0
    7.9640   -6.3814    0.0000 C   0  0
    8.1349   -5.5830    0.0000 C   0  0
    8.8781   -5.2487    0.0000 Br  0  0
    7.4259   -5.1743    0.0000 C   0  0
    7.3420   -4.3598    0.0000 Br  0  0
    6.8193   -5.7179    0.0000 N   0  0
    5.9235   -7.1742    0.0000 O   0  0
    8.4464   -8.5428    0.0000 S   0  0
    9.2278   -8.2924    0.0000 C   0  0
    9.9327   -8.7011    0.0000 C   0  0
  1  2  1  0
  2  3  2  0
  3  4  1  0
  4  5  2  0
  5  6  1  0
  6  7  2  0
  7  8  1  0
  8  9  1  0
  9 10  1  0
 10 11  2  0
 11 12  1  0
 12 13  1  0
 12 14  2  0
 14 15  1  0
 14 16  1  0
 10 16  1  0
  9 17  2  0
  7 18  1  0
  5 19  1  0
 18 19  1  0
 19 20  2  0
  2 20  1  0
M  END
> <From> 
www.bindingDB.org

> <BindingDB Reactant_set_id>
50524133

> <Ligand InChI>
InChI=1S/C12H8Br2N4OS/c13-6-4-8(16-10(6)14)11(19)18-12-17-7-2-1-5(15)3-9(7)20-12/h1-4,16H,15H2,(H,17,18,19)

> <Ligand InChI Key>
ANDKBRLNIKATCM-UHFFFAOYSA-N

> <BindingDB MonomerID>
50198321

> <BindingDB Ligand Name>
CHEMBL3944293

> <Target Name Assigned by Curator or DataSource>
DNA gyrase

> <Target Source Organism According to Curator or DataSource>
Staphylococcus aureus

> <Ki (nM)>


> <IC50 (nM)>
>100000

> <Kd (nM)>


> <EC50 (nM)>


> <kon (M-1-s-1)>


> <koff (s-1)>


> <pH>


> <Temp C>


> <Curation/DataSource>
ChEMBL

> <Article DOI>
10.1021/acs.jmedchem.6b00864

> <PMID>
27541007

> <PubChem AID>


> <Patent Number>


> <Authors>
Gjorgjieva, M; Tomaic, T; Barancokova, M; Katsamakas, S; Ila, J; Tammela, P; Peterlin Maic, L; Kikelj, D

> <Institution>
University of Ljubljana

> <Link to Ligand in BindingDB>
http://www.bindingdb.org/bind/chemsearch/marvin/MolStructure.jsp?monomerid=50198321

> <Link to Ligand-Target Pair in BindingDB>
http://www.bindingdb.org/jsp/dbsearch/PrimarySearch_ki.jsp?energyterm=kJ/mole&tag=pol&polymerid=2626&target=DNA+gyrase&column=ki&startPg=0&Increment=50&submit=Search

> <Link to Ligand-Target Pair in BindingDB>
http://www.bindingdb.org/jsp/dbsearch/PrimarySearch_ki.jsp?energyterm=kJ/mole&tag=r21&monomerid=50198321&enzyme=DNA+gyrase&column=ki&startPg=0&Increment=50&submit=Search

> <Ligand HET ID in PDB>


> <PDB ID(s) for Ligand-Target Complex>


> <PubChem CID>
134146043

> <PubChem SID>
375978205

> <ChEBI ID of Ligand>


> <ChEMBL ID of Ligand>


> <DrugBank ID of Ligand>


> <IUPHAR_GRAC ID of Ligand>


> <KEGG ID of Ligand>


> <ZINC ID of Ligand>


> <Number of Protein Chains in Target (>1 implies a multichain complex)>
1

> <BindingDB Target Chain Sequence>
MVTALSDVNNTDNYGAGQIQVLEGLEAVRKRPGMYIGSTSERGLHHLVWEIVDNSIDEALAGYANQIEVVIEKDNWIKVTDNGRGIPVDIQEKMGRPAVEVILTVLHAGGKFGGGGYKVSGGLHGVGSSVVNALSQDLEVYVHRNETIYHQAYKKGVPQFDLKEVGTTDKTGTVIRFKADGEIFTETTVYNYETLQQRIRELAFLNKGIQITLRDERDEENVREDSYHYEGGIKSYVELLNENKEPIHDEPIYIHQSKDDIEVEIAIQYNSGYATNLLTYANNIHTYEGGTHEDGFKRALTRVLNSYGLSSKIMKEEKDRLSGEDTREGMTAIISIKHGDPQFEGQTKTKLGNSEVRQVVDKLFSEHFERFLYENPQVARTVVEKGIMAARARVAAKKAREVTRRKSALDVASLPGKLADCSSKSPEECEIFLVEGDSAGGSTKSGRDSRTQAILPLRGKILNVEKARLDRILNNNEIRQMITAFGTGIGGDFDLAKARYHKIVIMTDADVDGAHIRTLLLTFFYRFMRPLIEAGYVYIAQPPLYKLTQGKQKYYVYNDRELDKLKSELNPTPKWSIARYKGLGEMNADQLWETTMNPEHRALLQVKLEDAIEADQTFEMLMGDVVENRRQFIEDNAVYANLDF

> <PDB ID(s) of Target Chain>


> <UniProt (SwissProt) Recommended Name of Target Chain>
DNA gyrase subunit B

> <UniProt (SwissProt) Entry Name of Target Chain>
GYRB_STAAU

> <UniProt (SwissProt) Primary ID of Target Chain>
P0A0K8

> <UniProt (SwissProt) Secondary ID(s) of Target Chain>
P20832

> <UniProt (SwissProt) Alternative ID(s) of Target Chain>


> <UniProt (TrEMBL) Submitted Name of Target Chain>


> <UniProt (TrEMBL) Entry Name of Target Chain>


> <UniProt (TrEMBL) Primary ID of Target Chain>


> <UniProt (TrEMBL) Secondary ID(s) of Target Chain>


> <UniProt (TrEMBL) Alternative ID(s) of Target Chain>


$$$$

  SciTegic12201719182D

 27 29  0  0  0  0            999 V2000
   10.2376   -5.9493    0.0000 O   0  0
   10.6462   -6.6584    0.0000 C   0  0
   11.4634   -6.6584    0.0000 C   0  0
   11.8720   -5.9493    0.0000 C   0  0
   12.6892   -5.9493    0.0000 O   0  0
   13.0978   -6.6584    0.0000 C   0  0
   11.4634   -5.2444    0.0000 O   0  0
   10.2376   -7.3675    0.0000 N   0  0
    9.4204   -7.3675    0.0000 C   0  0
    8.9362   -6.7042    0.0000 N   0  0
    8.1631   -6.9589    0.0000 C   0  0
    7.4540   -6.5503    0.0000 C   0  0
    6.7449   -6.9589    0.0000 C   0  0
    6.7449   -7.7761    0.0000 C   0  0
    6.0399   -8.1847    0.0000 N   0  0
    5.3308   -7.7761    0.0000 C   0  0
    5.3308   -6.9589    0.0000 C   0  0
    5.9900   -6.4788    0.0000 C   0  0
    5.7394   -5.7015    0.0000 C   0  0
    6.2196   -5.0383    0.0000 Br  0  0
    4.9222   -5.7015    0.0000 C   0  0
    4.4421   -5.0383    0.0000 Br  0  0
    4.6717   -6.4788    0.0000 N   0  0
    4.6217   -8.1847    0.0000 O   0  0
    7.4540   -8.1847    0.0000 C   0  0
    8.1631   -7.7761    0.0000 C   0  0
    8.9362   -8.0266    0.0000 S   0  0
  1  2  2  0
  2  3  1  0
  3  4  1  0
  4  5  1  0
  5  6  1  0
  4  7  2  0
  2  8  1  0
  8  9  1  0
  9 10  2  0
 10 11  1  0
 11 12  2  0
 12 13  1  0
 13 14  2  0
 14 15  1  0
 15 16  1  0
 16 17  1  0
 17 18  2  0
 18 19  1  0
 19 20  1  0
 19 21  2  0
 21 22  1  0
 21 23  1  0
 17 23  1  0
 16 24  2  0
 14 25  1  0
 25 26  2  0
 11 26  1  0
 26 27  1  0
  9 27  1  0
M  END
> <From> 
www.bindingDB.org

> <BindingDB Reactant_set_id>
50524134

> <Ligand InChI>
InChI=1S/C16H12Br2N4O4S/c1-26-13(24)6-12(23)22-16-21-9-3-2-7(4-11(9)27-16)19-15(25)10-5-8(17)14(18)20-10/h2-5,20H,6H2,1H3,(H,19,25)(H,21,22,23)

> <Ligand InChI Key>
AFQMMWARZCTCIV-UHFFFAOYSA-N

> <BindingDB MonomerID>
50198319

> <BindingDB Ligand Name>
CHEMBL3896465

> <Target Name Assigned by Curator or DataSource>
DNA gyrase

> <Target Source Organism According to Curator or DataSource>
Staphylococcus aureus

> <Ki (nM)>


> <IC50 (nM)>
>100000

> <Kd (nM)>


> <EC50 (nM)>


> <kon (M-1-s-1)>


> <koff (s-1)>


> <pH>


> <Temp C>


> <Curation/DataSource>
ChEMBL

> <Article DOI>
10.1021/acs.jmedchem.6b00864

> <PMID>
27541007

> <PubChem AID>


> <Patent Number>


> <Authors>
Gjorgjieva, M; Tomaic, T; Barancokova, M; Katsamakas, S; Ila, J; Tammela, P; Peterlin Maic, L; Kikelj, D

> <Institution>
University of Ljubljana

> <Link to Ligand in BindingDB>
http://www.bindingdb.org/bind/chemsearch/marvin/MolStructure.jsp?monomerid=50198319

> <Link to Ligand-Target Pair in BindingDB>
http://www.bindingdb.org/jsp/dbsearch/PrimarySearch_ki.jsp?energyterm=kJ/mole&tag=pol&polymerid=2626&target=DNA+gyrase&column=ki&startPg=0&Increment=50&submit=Search

> <Link to Ligand-Target Pair in BindingDB>
http://www.bindingdb.org/jsp/dbsearch/PrimarySearch_ki.jsp?energyterm=kJ/mole&tag=r21&monomerid=50198319&enzyme=DNA+gyrase&column=ki&startPg=0&Increment=50&submit=Search

> <Ligand HET ID in PDB>


> <PDB ID(s) for Ligand-Target Complex>


> <PubChem CID>
134133671

> <PubChem SID>
375978203

> <ChEBI ID of Ligand>


> <ChEMBL ID of Ligand>


> <DrugBank ID of Ligand>


> <IUPHAR_GRAC ID of Ligand>


> <KEGG ID of Ligand>


> <ZINC ID of Ligand>


> <Number of Protein Chains in Target (>1 implies a multichain complex)>
1

> <BindingDB Target Chain Sequence>
MVTALSDVNNTDNYGAGQIQVLEGLEAVRKRPGMYIGSTSERGLHHLVWEIVDNSIDEALAGYANQIEVVIEKDNWIKVTDNGRGIPVDIQEKMGRPAVEVILTVLHAGGKFGGGGYKVSGGLHGVGSSVVNALSQDLEVYVHRNETIYHQAYKKGVPQFDLKEVGTTDKTGTVIRFKADGEIFTETTVYNYETLQQRIRELAFLNKGIQITLRDERDEENVREDSYHYEGGIKSYVELLNENKEPIHDEPIYIHQSKDDIEVEIAIQYNSGYATNLLTYANNIHTYEGGTHEDGFKRALTRVLNSYGLSSKIMKEEKDRLSGEDTREGMTAIISIKHGDPQFEGQTKTKLGNSEVRQVVDKLFSEHFERFLYENPQVARTVVEKGIMAARARVAAKKAREVTRRKSALDVASLPGKLADCSSKSPEECEIFLVEGDSAGGSTKSGRDSRTQAILPLRGKILNVEKARLDRILNNNEIRQMITAFGTGIGGDFDLAKARYHKIVIMTDADVDGAHIRTLLLTFFYRFMRPLIEAGYVYIAQPPLYKLTQGKQKYYVYNDRELDKLKSELNPTPKWSIARYKGLGEMNADQLWETTMNPEHRALLQVKLEDAIEADQTFEMLMGDVVENRRQFIEDNAVYANLDF

> <PDB ID(s) of Target Chain>


> <UniProt (SwissProt) Recommended Name of Target Chain>
DNA gyrase subunit B

> <UniProt (SwissProt) Entry Name of Target Chain>
GYRB_STAAU

> <UniProt (SwissProt) Primary ID of Target Chain>
P0A0K8

> <UniProt (SwissProt) Secondary ID(s) of Target Chain>
P20832

> <UniProt (SwissProt) Alternative ID(s) of Target Chain>


> <UniProt (TrEMBL) Submitted Name of Target Chain>


> <UniProt (TrEMBL) Entry Name of Target Chain>


> <UniProt (TrEMBL) Primary ID of Target Chain>


> <UniProt (TrEMBL) Secondary ID(s) of Target Chain>


> <UniProt (TrEMBL) Alternative ID(s) of Target Chain>


$$$$

  SciTegic12231719382D

 27 29  0  0  0  0            999 V2000
   10.7376   -8.9778    0.0000 O   0  0
   10.3290   -9.6869    0.0000 C   0  0
    9.5118   -9.6869    0.0000 C   0  0
    9.0317  -10.3460    0.0000 C   0  0
    8.2544  -10.0955    0.0000 C   0  0
    7.5912  -10.5756    0.0000 Cl  0  0
    8.2544   -9.2783    0.0000 C   0  0
    7.5912   -8.7981    0.0000 Cl  0  0
    9.0317   -9.0236    0.0000 N   0  0
   10.7376  -10.3960    0.0000 N   0  0
   11.5548  -10.3960    0.0000 C   0  0
   12.0349   -9.7327    0.0000 N   0  0
   12.8121   -9.9874    0.0000 C   0  0
   13.5171   -9.5788    0.0000 C   0  0
   14.2262   -9.9874    0.0000 C   0  0
   14.2262  -10.8046    0.0000 C   0  0
   14.9353  -11.2132    0.0000 N   0  0
   15.6444  -10.8046    0.0000 C   0  0
   15.6444   -9.9874    0.0000 C   0  0
   14.9353   -9.5788    0.0000 O   0  0
   14.9353   -8.7616    0.0000 C   0  0
   14.2262   -8.3530    0.0000 C   0  0
   16.3493   -9.5788    0.0000 O   0  0
   16.3493  -11.2132    0.0000 O   0  0
   13.5171  -11.2132    0.0000 C   0  0
   12.8121  -10.8046    0.0000 C   0  0
   12.0349  -11.0551    0.0000 S   0  0
  1  2  2  0
  2  3  1  0
  3  4  2  0
  4  5  1  0
  5  6  1  0
  5  7  2  0
  7  8  1  0
  7  9  1  0
  3  9  1  0
  2 10  1  0
 10 11  1  0
 11 12  2  0
 12 13  1  0
 13 14  2  0
 14 15  1  0
 15 16  2  0
 16 17  1  0
 17 18  1  0
 18 19  1  0
 19 20  1  0
 20 21  1  0
 21 22  1  0
 19 23  2  0
 18 24  2  0
 16 25  1  0
 25 26  2  0
 13 26  1  0
 26 27  1  0
 11 27  1  0
M  END
> <From> 
www.bindingDB.org

> <BindingDB Reactant_set_id>
50524135

> <Ligand InChI>
InChI=1S/C16H12Cl2N4O4S/c1-2-26-15(25)14(24)19-7-3-4-9-11(5-7)27-16(21-9)22-13(23)10-6-8(17)12(18)20-10/h3-6,20H,2H2,1H3,(H,19,24)(H,21,22,23)

> <Ligand InChI Key>
WBIHUNSWBFRVNN-UHFFFAOYSA-N

> <BindingDB MonomerID>
50198299

> <BindingDB Ligand Name>
CHEMBL3964980

> <Target Name Assigned by Curator or DataSource>
DNA Gyrase Subunit B

> <Target Source Organism According to Curator or DataSource>
Escherichia coli

> <Ki (nM)>


> <IC50 (nM)>
>100000

> <Kd (nM)>


> <EC50 (nM)>


> <kon (M-1-s-1)>


> <koff (s-1)>


> <pH>


> <Temp C>


> <Curation/DataSource>
ChEMBL

> <Article DOI>
10.1021/acs.jmedchem.6b00864

> <PMID>
27541007

> <PubChem AID>


> <Patent Number>


> <Authors>
Gjorgjieva, M; Tomaic, T; Barancokova, M; Katsamakas, S; Ila, J; Tammela, P; Peterlin Maic, L; Kikelj, D

> <Institution>
University of Ljubljana

> <Link to Ligand in BindingDB>
http://www.bindingdb.org/bind/chemsearch/marvin/MolStructure.jsp?monomerid=50198299

> <Link to Ligand-Target Pair in BindingDB>
http://www.bindingdb.org/jsp/dbsearch/PrimarySearch_ki.jsp?energyterm=kJ/mole&tag=pol&polymerid=2630&target=DNA+Gyrase+Subunit+B&column=ki&startPg=0&Increment=50&submit=Search

> <Link to Ligand-Target Pair in BindingDB>
http://www.bindingdb.org/jsp/dbsearch/PrimarySearch_ki.jsp?energyterm=kJ/mole&tag=r21&monomerid=50198299&enzyme=DNA+Gyrase+Subunit+B&column=ki&startPg=0&Increment=50&submit=Search

> <Ligand HET ID in PDB>


> <PDB ID(s) for Ligand-Target Complex>


> <PubChem CID>
134150761

> <PubChem SID>
375978197

> <ChEBI ID of Ligand>


> <ChEMBL ID of Ligand>


> <DrugBank ID of Ligand>


> <IUPHAR_GRAC ID of Ligand>


> <KEGG ID of Ligand>


> <ZINC ID of Ligand>


> <Number of Protein Chains in Target (>1 implies a multichain complex)>
1

> <BindingDB Target Chain Sequence>
MSNSYDSSSIKVLKGLDAVRKRPGMYIGDTDDGTGLHHMVFEVVDNAIDEALAGHCKEII
VTIHADNSVSVQDDGRGIPTGIHPEEGVSAAEVIMTVLHAGGKFDDNSYKVSGGLHGVGV
SVVNALSQKLELVIQREGKIHRQIYEHGVPQAPLAVTGETEKTGTMVRFWPSLETFTNVT
EFEYEILAKRLRELSFLNSGVSIRLRDKRDGKEDHFHYEGGIKAFVEYLNKNKTPIHPNI
FYFSTEKDGIGVEVALQWNDGFQENIYCFTNNIPQRDGGTHLAGFRAAMTRTLNAYMDKE
GYSKKAKVSATGDDAREGLIAVVSVKVPDPKFSSQTKDKLVSSEVKSAVEQQMNELLAEY
LLENPTDAKIVVGKIIDAARAREAARRAREMTRRKGALDLAGLPGKLADCQERDPALSEL
YLVEGDSAGGSAKQGRNRKNQAILPLKGKILNVEKARFDKMLSSQEVATLITALGCGIGR
DEYNPDKLRYHSIIIMTDADVDGSHIRTLLLTFFYRQMPEIVERGHVYIAQPPLYKVKKG
KQEQYIKDDEAMDQYQISIALDGATLHTNASAPALAGEALEKLVSEYNATQKMINRMERR
YPKAMLKELIYQPTLTEADLSDEQTVTRWVNALVSELNDKEQHGSQWKFDVHTNAEQNLF
EPIVRVRTHGVDTDYPLDHEFITGGEYRRICTLGEKLRGLLEEDAFIERGERRQPVASFE
QALDWLVKESRRGLSIQRYKGLGEMNPEQLWETTMDPESRRMLRVTVKDAIAADQLFTTL
MGDAVEPRRAFIEENALKAANIDI

> <PDB ID(s) of Target Chain>
1KZN,3G7E,3NUH,4DUH,4HYP,4KFG,4PRV,4PRX,4PU9,4WUB,4WUC,4WUD,4XTJ,4ZVI,5L3J,5MMN,5MMO,5MMP,5Z4H,5Z4O,5Z9B,5Z9E,5Z9F,5Z9L,5Z9M,5Z9N,5Z9Q,6ENG,6F86,6F8J,6F94,6F96

> <UniProt (SwissProt) Recommended Name of Target Chain>
DNA gyrase subunit B

> <UniProt (SwissProt) Entry Name of Target Chain>
GYRB_ECOLI

> <UniProt (SwissProt) Primary ID of Target Chain>
P0AES6

> <UniProt (SwissProt) Secondary ID(s) of Target Chain>
O08438,P06982,Q2M811

> <UniProt (SwissProt) Alternative ID(s) of Target Chain>


> <UniProt (TrEMBL) Submitted Name of Target Chain>


> <UniProt (TrEMBL) Entry Name of Target Chain>


> <UniProt (TrEMBL) Primary ID of Target Chain>


> <UniProt (TrEMBL) Secondary ID(s) of Target Chain>


> <UniProt (TrEMBL) Alternative ID(s) of Target Chain>


$$$$

  Mrv0541 04241520582D          

 26 28  0  0  0  0            999 V2000
   10.5910   -6.2864    0.0000 C   0  0  0  0  0  0  0  0  0  0  0  0
   11.4147   -6.2875    0.0000 C   0  0  0  0  0  0  0  0  0  0  0  0
   11.8279   -5.5752    0.0000 C   0  0  0  0  0  0  0  0  0  0  0  0
   11.4142   -4.8614    0.0000 C   0  0  0  0  0  0  0  0  0  0  0  0
   10.5874   -4.8642    0.0000 C   0  0  0  0  0  0  0  0  0  0  0  0
   10.1821   -5.5771    0.0000 C   0  0  0  0  0  0  0  0  0  0  0  0
   12.6535   -5.5754    0.0000 C   0  0  0  0  0  0  0  0  0  0  0  0
   13.1233   -4.8979    0.0000 C   0  0  0  0  0  0  0  0  0  0  0  0
   13.9472   -4.8798    0.0000 C   0  0  0  0  0  0  0  0  0  0  0  0
   14.1873   -4.0878    0.0000 N   0  0  0  0  0  0  0  0  0  0  0  0
   13.5115   -3.6191    0.0000 C   0  0  0  0  0  0  0  0  0  0  0  0
   12.8529   -4.1171    0.0000 S   0  0  0  0  0  0  0  0  0  0  0  0
   13.4940   -2.7938    0.0000 S   0  0  0  0  0  0  0  0  0  0  0  0
   14.4476   -5.5385    0.0000 O   0  0  0  0  0  0  0  0  0  0  0  0
   11.8280   -4.1452    0.0000 Cl  0  0  0  0  0  0  0  0  0  0  0  0
   14.9101   -3.6900    0.0000 C   0  0  2  0  0  0  0  0  0  0  0  0
   15.6182   -4.1135    0.0000 C   0  0  0  0  0  0  0  0  0  0  0  0
   14.9249   -2.8646    0.0000 C   0  0  0  0  0  0  0  0  0  0  0  0
   15.6496   -2.4656    0.0000 C   0  0  0  0  0  0  0  0  0  0  0  0
   15.6648   -1.6410    0.0000 C   0  0  0  0  0  0  0  0  0  0  0  0
   14.9562   -1.2168    0.0000 C   0  0  0  0  0  0  0  0  0  0  0  0
   14.2352   -1.6190    0.0000 C   0  0  0  0  0  0  0  0  0  0  0  0
   14.2236   -2.4423    0.0000 C   0  0  0  0  0  0  0  0  0  0  0  0
   16.3409   -3.7155    0.0000 C   0  0  0  0  0  0  0  0  0  0  0  0
   17.0489   -4.1390    0.0000 O   0  0  0  0  0  0  0  0  0  0  0  0
   16.3556   -2.8902    0.0000 O   0  0  0  0  0  0  0  0  0  0  0  0
  1  2  4  0  0  0  0
  2  3  4  0  0  0  0
  3  4  4  0  0  0  0
  4  5  4  0  0  0  0
  5  6  4  0  0  0  0
  6  1  4  0  0  0  0
  3  7  1  0  0  0  0
  7  8  2  0  0  0  0
  9 10  1  0  0  0  0
  8  9  1  0  0  0  0
 10 11  1  0  0  0  0
 11 12  1  0  0  0  0
 12  8  1  0  0  0  0
 11 13  2  0  0  0  0
  9 14  2  0  0  0  0
  4 15  1  0  0  0  0
 16 10  1  1  0  0  0
 16 17  1  0  0  0  0
 16 18  1  0  0  0  0
 18 19  4  0  0  0  0
 19 20  4  0  0  0  0
 20 21  4  0  0  0  0
 21 22  4  0  0  0  0
 22 23  4  0  0  0  0
 23 18  4  0  0  0  0
 17 24  1  0  0  0  0
 24 25  1  0  0  0  0
 24 26  2  0  0  0  0
M  END
> <From> 
www.bindingDB.org

> <BindingDB Reactant_set_id>
50088869

> <Ligand InChI>
InChI=1S/C19H14ClNO3S2/c20-14-9-5-4-8-13(14)10-16-18(24)21(19(25)26-16)15(11-17(22)23)12-6-2-1-3-7-12/h1-10,15H,11H2,(H,22,23)/b16-10-/t15-/m1/s1

> <Ligand InChI Key>
VJWNLDSEFPHOHL-CCAPLTMGSA-N

> <BindingDB MonomerID>
50009582

> <BindingDB Ligand Name>
CHEMBL3234494

> <Target Name Assigned by Curator or DataSource>
DNA Gyrase Subunit B

> <Target Source Organism According to Curator or DataSource>
Staphylococcus aureus

> <Ki (nM)>


> <IC50 (nM)>
 100000

> <Kd (nM)>


> <EC50 (nM)>


> <kon (M-1-s-1)>


> <koff (s-1)>


> <pH>


> <Temp C>


> <Curation/DataSource>
ChEMBL

> <Article DOI>
10.1016/j.bmc.2014.02.020

> <PMID>
24629449

> <PubChem AID>


> <Patent Number>


> <Authors>
Werner, MM; Li, Z; Zauhar, RJ

> <Institution>
University of the Sciences

> <Link to Ligand in BindingDB>
http://www.bindingdb.org/bind/chemsearch/marvin/MolStructure.jsp?monomerid=50009582

> <Link to Ligand-Target Pair in BindingDB>
http://www.bindingdb.org/jsp/dbsearch/PrimarySearch_ki.jsp?energyterm=kJ/mole&tag=pol&polymerid=2626&target=DNA+Gyrase+Subunit+B&column=ki&startPg=0&Increment=50&submit=Search

> <Link to Ligand-Target Pair in BindingDB>
http://www.bindingdb.org/jsp/dbsearch/PrimarySearch_ki.jsp?energyterm=kJ/mole&tag=r21&monomerid=50009582&enzyme=DNA+Gyrase+Subunit+B&column=ki&startPg=0&Increment=50&submit=Search

> <Ligand HET ID in PDB>


> <PDB ID(s) for Ligand-Target Complex>


> <PubChem CID>
7559691

> <PubChem SID>
242057417

> <ChEBI ID of Ligand>


> <ChEMBL ID of Ligand>
CHEMBL3234494

> <DrugBank ID of Ligand>


> <IUPHAR_GRAC ID of Ligand>


> <KEGG ID of Ligand>


> <ZINC ID of Ligand>


> <Number of Protein Chains in Target (>1 implies a multichain complex)>
1

> <BindingDB Target Chain Sequence>
MVTALSDVNNTDNYGAGQIQVLEGLEAVRKRPGMYIGSTSERGLHHLVWEIVDNSIDEALAGYANQIEVVIEKDNWIKVTDNGRGIPVDIQEKMGRPAVEVILTVLHAGGKFGGGGYKVSGGLHGVGSSVVNALSQDLEVYVHRNETIYHQAYKKGVPQFDLKEVGTTDKTGTVIRFKADGEIFTETTVYNYETLQQRIRELAFLNKGIQITLRDERDEENVREDSYHYEGGIKSYVELLNENKEPIHDEPIYIHQSKDDIEVEIAIQYNSGYATNLLTYANNIHTYEGGTHEDGFKRALTRVLNSYGLSSKIMKEEKDRLSGEDTREGMTAIISIKHGDPQFEGQTKTKLGNSEVRQVVDKLFSEHFERFLYENPQVARTVVEKGIMAARARVAAKKAREVTRRKSALDVASLPGKLADCSSKSPEECEIFLVEGDSAGGSTKSGRDSRTQAILPLRGKILNVEKARLDRILNNNEIRQMITAFGTGIGGDFDLAKARYHKIVIMTDADVDGAHIRTLLLTFFYRFMRPLIEAGYVYIAQPPLYKLTQGKQKYYVYNDRELDKLKSELNPTPKWSIARYKGLGEMNADQLWETTMNPEHRALLQVKLEDAIEADQTFEMLMGDVVENRRQFIEDNAVYANLDF

> <PDB ID(s) of Target Chain>


> <UniProt (SwissProt) Recommended Name of Target Chain>
DNA gyrase subunit B

> <UniProt (SwissProt) Entry Name of Target Chain>
GYRB_STAAU

> <UniProt (SwissProt) Primary ID of Target Chain>
P0A0K8

> <UniProt (SwissProt) Secondary ID(s) of Target Chain>
P20832

> <UniProt (SwissProt) Alternative ID(s) of Target Chain>


> <UniProt (TrEMBL) Submitted Name of Target Chain>


> <UniProt (TrEMBL) Entry Name of Target Chain>


> <UniProt (TrEMBL) Primary ID of Target Chain>


> <UniProt (TrEMBL) Secondary ID(s) of Target Chain>


> <UniProt (TrEMBL) Alternative ID(s) of Target Chain>


$$$$

  Mrv0541 11231422262D          

 25 27  0  0  0  0            999 V2000
    5.7868  -14.7398    0.0000 N   0  0  0  0  0  0  0  0  0  0  0  0
    5.1135  -14.2531    0.0000 C   0  0  0  0  0  0  0  0  0  0  0  0
    5.3701  -13.4649    0.0000 C   0  0  0  0  0  0  0  0  0  0  0  0
    6.1992  -13.4649    0.0000 C   0  0  0  0  0  0  0  0  0  0  0  0
    6.4558  -14.2536    0.0000 C   0  0  0  0  0  0  0  0  0  0  0  0
    4.3292  -14.5088    0.0000 C   0  0  0  0  0  0  0  0  0  0  0  0
    7.1725  -14.6618    0.0000 C   0  0  0  0  0  0  0  0  0  0  0  0
    7.1774  -15.4867    0.0000 O   0  0  0  0  0  0  0  0  0  0  0  0
    7.8845  -14.2453    0.0000 N   0  0  0  0  0  0  0  0  0  0  0  0
    8.6013  -14.6535    0.0000 C   0  0  0  0  0  0  0  0  0  0  0  0
    8.6024  -15.4805    0.0000 C   0  0  0  0  0  0  0  0  0  0  0  0
    9.3151  -15.8887    0.0000 C   0  0  0  0  0  0  0  0  0  0  0  0
   10.0295  -15.4755    0.0000 N   0  0  0  0  0  0  0  0  0  0  0  0
   10.0266  -14.6496    0.0000 C   0  0  0  0  0  0  0  0  0  0  0  0
    9.3093  -14.2370    0.0000 C   0  0  0  0  0  0  0  0  0  0  0  0
   10.7449  -15.8864    0.0000 C   0  0  0  0  0  0  0  0  0  0  0  0
    4.8855  -12.7974    0.0000 Cl  0  0  0  0  0  0  0  0  0  0  0  0
    6.6840  -12.7975    0.0000 Cl  0  0  0  0  0  0  0  0  0  0  0  0
   11.0075  -16.6681    0.0000 C   0  0  0  0  0  0  0  0  0  0  0  0
   11.8324  -16.6610    0.0000 N   0  0  0  0  0  0  0  0  0  0  0  0
   12.0806  -15.8742    0.0000 C   0  0  1  0  0  0  0  0  0  0  0  0
   11.4091  -15.3953    0.0000 C   0  0  0  0  0  0  0  0  0  0  0  0
   12.7919  -15.4556    0.0000 C   0  0  0  0  0  0  0  0  0  0  0  0
   13.5095  -15.8625    0.0000 O   0  0  0  0  0  0  0  0  0  0  0  0
   12.7855  -14.6308    0.0000 O   0  0  0  0  0  0  0  0  0  0  0  0
  5  7  1  0  0  0  0
 10 15  1  0  0  0  0
 11 12  1  0  0  0  0
 12 13  1  0  0  0  0
 13 14  1  0  0  0  0
 14 15  1  0  0  0  0
  1  2  1  0  0  0  0
 13 16  1  0  0  0  0
  7  8  2  0  0  0  0
  3 17  1  0  0  0  0
  3  4  1  0  0  0  0
  4 18  1  0  0  0  0
 16 19  1  0  0  0  0
  7  9  1  0  0  0  0
  4  5  2  0  0  0  0
  9 10  1  0  0  0  0
 10 11  1  0  0  0  0
 19 20  1  0  0  0  0
 21 20  1  0  0  0  0
 21 22  1  0  0  0  0
 22 16  1  0  0  0  0
  5  1  1  0  0  0  0
 21 23  1  1  0  0  0
  2  3  2  0  0  0  0
 23 24  1  0  0  0  0
  2  6  1  0  0  0  0
 23 25  2  0  0  0  0
M  END
> <From> 
www.bindingDB.org

> <BindingDB Reactant_set_id>
50705130

> <Ligand InChI>
InChI=1S/C16H22Cl2N4O3/c1-8-12(17)13(18)14(20-8)15(23)21-9-2-4-22(5-3-9)10-6-11(16(24)25)19-7-10/h9-11,19-20H,2-7H2,1H3,(H,21,23)(H,24,25)/t10?,11-/m0/s1

> <Ligand InChI Key>
GDADFWYWIKZSOH-DTIOYNMSSA-N

> <BindingDB MonomerID>
50358852

> <BindingDB Ligand Name>
CHEMBL1923437

> <Target Name Assigned by Curator or DataSource>
DNA Gyrase Subunit B

> <Target Source Organism According to Curator or DataSource>
Staphylococcus aureus

> <Ki (nM)>


> <IC50 (nM)>
 129000

> <Kd (nM)>


> <EC50 (nM)>


> <kon (M-1-s-1)>


> <koff (s-1)>


> <pH>


> <Temp C>


> <Curation/DataSource>
ChEMBL

> <Article DOI>
10.1016/j.bmcl.2011.10.010

> <PMID>
22041057

> <PubChem AID>


> <Patent Number>


> <Authors>
Sherer, BA; Hull, K; Green, O; Basarab, G; Hauck, S; Hill, P; Loch, JT; Mullen, G; Bist, S; Bryant, J; Boriack-Sjodin, A; Read, J; DeGrace, N; Uria-Nickelsen, M; Illingworth, RN; Eakin, AE

> <Institution>
AstraZeneca R&amp;D Boston

> <Link to Ligand in BindingDB>
http://www.bindingdb.org/bind/chemsearch/marvin/MolStructure.jsp?monomerid=50358852

> <Link to Ligand-Target Pair in BindingDB>
http://www.bindingdb.org/jsp/dbsearch/PrimarySearch_ki.jsp?energyterm=kJ/mole&tag=pol&polymerid=2626&target=DNA+Gyrase+Subunit+B&column=ki&startPg=0&Increment=50&submit=Search

> <Link to Ligand-Target Pair in BindingDB>
http://www.bindingdb.org/jsp/dbsearch/PrimarySearch_ki.jsp?energyterm=kJ/mole&tag=r21&monomerid=50358852&enzyme=DNA+Gyrase+Subunit+B&column=ki&startPg=0&Increment=50&submit=Search

> <Ligand HET ID in PDB>


> <PDB ID(s) for Ligand-Target Complex>


> <PubChem CID>
57394261

> <PubChem SID>
136962876

> <ChEBI ID of Ligand>


> <ChEMBL ID of Ligand>
CHEMBL1923437

> <DrugBank ID of Ligand>


> <IUPHAR_GRAC ID of Ligand>


> <KEGG ID of Ligand>


> <ZINC ID of Ligand>
ZINC73161942

> <Number of Protein Chains in Target (>1 implies a multichain complex)>
1

> <BindingDB Target Chain Sequence>
MVTALSDVNNTDNYGAGQIQVLEGLEAVRKRPGMYIGSTSERGLHHLVWEIVDNSIDEALAGYANQIEVVIEKDNWIKVTDNGRGIPVDIQEKMGRPAVEVILTVLHAGGKFGGGGYKVSGGLHGVGSSVVNALSQDLEVYVHRNETIYHQAYKKGVPQFDLKEVGTTDKTGTVIRFKADGEIFTETTVYNYETLQQRIRELAFLNKGIQITLRDERDEENVREDSYHYEGGIKSYVELLNENKEPIHDEPIYIHQSKDDIEVEIAIQYNSGYATNLLTYANNIHTYEGGTHEDGFKRALTRVLNSYGLSSKIMKEEKDRLSGEDTREGMTAIISIKHGDPQFEGQTKTKLGNSEVRQVVDKLFSEHFERFLYENPQVARTVVEKGIMAARARVAAKKAREVTRRKSALDVASLPGKLADCSSKSPEECEIFLVEGDSAGGSTKSGRDSRTQAILPLRGKILNVEKARLDRILNNNEIRQMITAFGTGIGGDFDLAKARYHKIVIMTDADVDGAHIRTLLLTFFYRFMRPLIEAGYVYIAQPPLYKLTQGKQKYYVYNDRELDKLKSELNPTPKWSIARYKGLGEMNADQLWETTMNPEHRALLQVKLEDAIEADQTFEMLMGDVVENRRQFIEDNAVYANLDF

> <PDB ID(s) of Target Chain>


> <UniProt (SwissProt) Recommended Name of Target Chain>
DNA gyrase subunit B

> <UniProt (SwissProt) Entry Name of Target Chain>
GYRB_STAAU

> <UniProt (SwissProt) Primary ID of Target Chain>
P0A0K8

> <UniProt (SwissProt) Secondary ID(s) of Target Chain>
P20832

> <UniProt (SwissProt) Alternative ID(s) of Target Chain>


> <UniProt (TrEMBL) Submitted Name of Target Chain>


> <UniProt (TrEMBL) Entry Name of Target Chain>


> <UniProt (TrEMBL) Primary ID of Target Chain>


> <UniProt (TrEMBL) Secondary ID(s) of Target Chain>


> <UniProt (TrEMBL) Alternative ID(s) of Target Chain>


$$$$
 
  Mrv0541 11221409182D          

 44 47  0  0  0  0            999 V2000
   -0.2473    0.9000    0.0000 C   0  0  0  0  0  0  0  0  0  0  0  0
   -0.2484    0.0727    0.0000 C   0  0  0  0  0  0  0  0  0  0  0  0
    0.4664   -0.3402    0.0000 C   0  0  0  0  0  0  0  0  0  0  0  0
    0.4646    1.3128    0.0000 C   0  0  0  0  0  0  0  0  0  0  0  0
    1.1800    0.9037    0.0000 C   0  0  0  0  0  0  0  0  0  0  0  0
    1.1788    0.0752    0.0000 C   0  0  0  0  0  0  0  0  0  0  0  0
    1.8918   -0.3378    0.0000 C   0  0  0  0  0  0  0  0  0  0  0  0
    2.6104    0.0732    0.0000 C   0  0  0  0  0  0  0  0  0  0  0  0
    2.6116    0.9017    0.0000 C   0  0  0  0  0  0  0  0  0  0  0  0
    1.8941    1.3192    0.0000 O   0  0  0  0  0  0  0  0  0  0  0  0
    3.3271    1.3124    0.0000 O   0  0  0  0  0  0  0  0  0  0  0  0
    3.3237   -0.3413    0.0000 N   0  0  0  0  0  0  0  0  0  0  0  0
    4.0394    0.0692    0.0000 C   0  0  0  0  0  0  0  0  0  0  0  0
    4.7527   -0.3453    0.0000 C   0  0  0  0  0  0  0  0  0  0  0  0
    4.0417    0.8942    0.0000 O   0  0  0  0  0  0  0  0  0  0  0  0
    4.7449   -1.1677    0.0000 C   0  0  0  0  0  0  0  0  0  0  0  0
    5.4574   -1.5821    0.0000 C   0  0  0  0  0  0  0  0  0  0  0  0
    6.1740   -1.1716    0.0000 C   0  0  0  0  0  0  0  0  0  0  0  0
    6.1737   -0.3423    0.0000 C   0  0  0  0  0  0  0  0  0  0  0  0
    5.4606    0.0684    0.0000 C   0  0  0  0  0  0  0  0  0  0  0  0
    6.8879   -1.5851    0.0000 O   0  0  0  0  0  0  0  0  0  0  0  0
    5.4547   -2.4071    0.0000 C   0  0  0  0  0  0  0  0  0  0  0  0
    6.1678   -2.8220    0.0000 C   0  0  0  0  0  0  0  0  0  0  0  0
    6.1651   -3.6470    0.0000 C   0  0  0  0  0  0  0  0  0  0  0  0
    5.4493   -4.0571    0.0000 C   0  0  0  0  0  0  0  0  0  0  0  0
    6.8782   -4.0618    0.0000 C   0  0  0  0  0  0  0  0  0  0  0  0
    1.8894   -1.1628    0.0000 O   0  0  0  0  0  0  0  0  0  0  0  0
   -0.9618    1.3124    0.0000 O   0  0  0  0  0  0  0  0  0  0  0  0
   -1.6762    0.8997    0.0000 C   0  0  2  0  0  0  0  0  0  0  0  0
   -2.3887    1.3169    0.0000 O   0  0  0  0  0  0  0  0  0  0  0  0
   -3.1009    0.9077    0.0000 C   0  0  0  0  0  0  0  0  0  0  0  0
   -3.1050    0.0824    0.0000 C   0  0  1  0  0  0  0  0  0  0  0  0
   -2.3906   -0.3322    0.0000 C   0  0  2  0  0  0  0  0  0  0  0  0
   -1.6721    0.0786    0.0000 C   0  0  1  0  0  0  0  0  0  0  0  0
   -0.9575   -0.3336    0.0000 O   0  0  0  0  0  0  0  0  0  0  0  0
   -2.3932   -1.1572    0.0000 O   0  0  0  0  0  0  0  0  0  0  0  0
   -3.8209   -0.3276    0.0000 O   0  0  0  0  0  0  0  0  0  0  0  0
   -4.5339    0.0874    0.0000 C   0  0  0  0  0  0  0  0  0  0  0  0
   -3.3208    1.7083    0.0000 C   0  0  0  0  0  0  0  0  0  0  0  0
   -3.9042    0.6958    0.0000 C   0  0  0  0  0  0  0  0  0  0  0  0
   -3.1090   -1.5674    0.0000 C   0  0  0  0  0  0  0  0  0  0  0  0
   -3.1116   -2.3924    0.0000 N   0  0  0  0  0  0  0  0  0  0  0  0
   -3.8221   -1.1526    0.0000 O   0  0  0  0  0  0  0  0  0  0  0  0
    0.4621    2.1378    0.0000 C   0  0  0  0  0  0  0  0  0  0  0  0
 18 21  1  0  0  0  0
  9 10  1  0  0  0  0
 17 22  1  0  0  0  0
  5  6  1  0  0  0  0
 22 23  1  0  0  0  0
  9 11  2  0  0  0  0
 23 24  2  0  0  0  0
 24 25  1  0  0  0  0
  8 12  1  0  0  0  0
 24 26  1  0  0  0  0
  2  3  1  0  0  0  0
  7 27  1  0  0  0  0
 12 13  1  0  0  0  0
  1 28  1  0  0  0  0
  3  6  2  0  0  0  0
 29 28  1  1  0  0  0
 29 30  1  0  0  0  0
 13 14  1  0  0  0  0
  1  2  2  0  0  0  0
 13 15  2  0  0  0  0
  5  4  2  0  0  0  0
 14 16  2  0  0  0  0
 34 29  1  0  0  0  0
 30 31  1  0  0  0  0
 32 31  1  0  0  0  0
 33 32  1  0  0  0  0
 33 34  1  0  0  0  0
  4  1  1  0  0  0  0
 34 35  1  6  0  0  0
 16 17  1  0  0  0  0
 33 36  1  6  0  0  0
  5 10  1  0  0  0  0
 32 37  1  1  0  0  0
 17 18  2  0  0  0  0
 37 38  1  0  0  0  0
  6  7  1  0  0  0  0
 31 39  1  0  0  0  0
 18 19  1  0  0  0  0
 31 40  1  0  0  0  0
  7  8  2  0  0  0  0
 36 41  1  0  0  0  0
 19 20  2  0  0  0  0
 41 42  1  0  0  0  0
 20 14  1  0  0  0  0
 41 43  2  0  0  0  0
  8  9  1  0  0  0  0
  4 44  1  0  0  0  0
M  END
> <From> 
www.bindingDB.org

> <BindingDB Reactant_set_id>
50543823

> <Ligand InChI>
InChI=1S/C31H36N2O11/c1-14(2)7-8-16-13-17(9-11-19(16)34)27(37)33-21-22(35)18-10-12-20(15(3)24(18)42-28(21)38)41-29-23(36)25(43-30(32)39)26(40-6)31(4,5)44-29/h7,9-13,23,25-26,29,34-36H,8H2,1-6H3,(H2,32,39)(H,33,37)/t23-,25+,26-,29-/m1/s1

> <Ligand InChI Key>
YJQPYGGHQPGBLI-KGSXXDOSSA-N

> <BindingDB MonomerID>
50226181

> <BindingDB Ligand Name>
(3R,4S,5R,6R)-5-hydroxy-6-(4-hydroxy-3-(4-hydroxy-3-(3-methylbut-2-enyl)benzamido)-2-oxo-2H-chromen-7-yloxy)-3-methoxy-2,2-dimethyl-tetrahydro-2H-pyran-4-yl carbamate::(3R,4S,5R,6R)-5-hydroxy-6-(4-hydroxy-3-(4-hydroxy-3-(3-methylbut-2-enyl)benzamido)-8-methyl-2-oxo-2H-chromen-7-yloxy)-3-methoxy-2,2-dimethyl-tetrahydro-2H-pyran-4-yl carbamate::CHEMBL36506::Carbamic acid (3R,4S,5R,6R)-5-hydroxy-6-{4-hydroxy-3-[4-hydroxy-3-(3-methyl-but-2-enyl)-benzoylamino]-8-methyl-2-oxo-2H-chromen-7-yloxy}-3-methoxy-2,2-dimethyl-tetrahydro-pyran-4-yl ester::Carbamic acid (3R,4S,5R,6R)-5-hydroxy-6-{4-hydroxy-3-[4-hydroxy-3-(4-methyl-pent-3-enyl)-benzoylamino]-8-methyl-2-oxo-2H-chromen-7-yloxy}-3-methoxy-2,2-dimethyl-tetrahydro-pyran-4-yl ester::Carbamic acid 5-hydroxy-6-{4-hydroxy-3-[4-hydroxy-3-(3-methyl-but-2-enyl)-benzoylamino]-8-methyl-2-oxo-2H-chromen-7-yloxy}-3-methoxy-2,2-dimethyl-tetrahydro-pyran-4-yl ester::Carbamic acid 5-hydroxy-6-{4-hydroxy-3-[4-hydroxy-3-(3-methyl-but-2-enyl)-benzoylamino]-8-methyl-2-oxo-2H-chromen-7-yloxy}-3-methoxy-2,2-dimethyl-tetrahydro-pyran-4-yl ester(Novobiocin)::NOVOBIOCIN

> <Target Name Assigned by Curator or DataSource>
DNA gyrase subunit B

> <Target Source Organism According to Curator or DataSource>


> <Ki (nM)>


> <IC50 (nM)>
 180000

> <Kd (nM)>


> <EC50 (nM)>


> <kon (M-1-s-1)>


> <koff (s-1)>


> <pH>


> <Temp C>


> <Curation/DataSource>
ChEMBL

> <Article DOI>
10.1016/j.ejmech.2016.08.034

> <PMID>
27569197

> <PubChem AID>


> <Patent Number>


> <Authors>
Chaudhari, K; Surana, S; Jain, P; Patel, HM

> <Institution>
R. C. Patel Institute of Pharmaceutical Education and Research

> <Link to Ligand in BindingDB>
http://www.bindingdb.org/bind/chemsearch/marvin/MolStructure.jsp?monomerid=50226181

> <Link to Ligand-Target Pair in BindingDB>
http://www.bindingdb.org/jsp/dbsearch/PrimarySearch_ki.jsp?energyterm=kJ/mole&tag=pol&polymerid=50006452&target=DNA+gyrase+subunit+B&column=ki&startPg=0&Increment=50&submit=Search

> <Link to Ligand-Target Pair in BindingDB>
http://www.bindingdb.org/jsp/dbsearch/PrimarySearch_ki.jsp?energyterm=kJ/mole&tag=r21&monomerid=50226181&enzyme=DNA+gyrase+subunit+B&column=ki&startPg=0&Increment=50&submit=Search

> <Ligand HET ID in PDB>
NOV

> <PDB ID(s) for Ligand-Target Complex>
1AJ6,1KIJ,1S14,3LPS,4URN,4URO

> <PubChem CID>
54675769

> <PubChem SID>
104097057

> <ChEBI ID of Ligand>
28368

> <ChEMBL ID of Ligand>
CHEMBL36506

> <DrugBank ID of Ligand>
DB01051

> <IUPHAR_GRAC ID of Ligand>


> <KEGG ID of Ligand>
C05080

> <ZINC ID of Ligand>
ZINC14879999

> <Number of Protein Chains in Target (>1 implies a multichain complex)>
1

> <BindingDB Target Chain Sequence>
MAAQKNNAPKEYGADSITILEGLEAVRKRPGMYIGSTGERGLHHLIWEVVDNAVDEAMAGFATRVDVKIHADGSVEVRDDGRGIPVEMHATGMPTIDVVMTQLHAGGKFDGETYAVSGGLHGVGVSVVNALSTRLEATVLRDGYEWFQYYDRSVPGKLKQGGETKETGTTIRFWADPEIFETTDYNFETVARRLQEMAFLNKGLTIELTDERVTAEEVVDDVVKDTAEAPKTADEKAAEATGPSKVKHRVFHYPGGLVDYVKHINRTKTPIQQSIIDFDGKGPGHEVEIAMQWNAGYSESVHTFANTINTHEGGTHEEGFRAALTSVVNRYAKDKKLLKDKDPNLTGDDIREGLAAVISVKVAEPQFEGQTKTKLGNTEVKSFVQKICNEQLQHWFEANPAEAKTVVNKAVSSAQARIAARKARELVRRKSATDIGGLPGKLADCRSTDPSKSELYVVEGDSAGGSAKSGRDSMFQAILPLRGKIINVEKARIDRVLKNTEVQSIITALGTGIHDEFDISKLRYHKIVLMADADVDGQHISTLLLTLLFRFMKPLVENGHIFLAQPPLYKLKWQRSEPEFAYSDRERDGLLEAGRAAGKKINVDDGIQRYKGLGEMDAKELWETTMDPSVRVLRQVTLDDAAAADELFSILMGEDVEARRSFITRNAKDVRFLDV

> <PDB ID(s) of Target Chain>
4BAE

> <UniProt (SwissProt) Recommended Name of Target Chain>
DNA gyrase subunit B

> <UniProt (SwissProt) Entry Name of Target Chain>
GYRB_MYCSM

> <UniProt (SwissProt) Primary ID of Target Chain>
P0C559

> <UniProt (SwissProt) Secondary ID(s) of Target Chain>
P48355,Q59555

> <UniProt (SwissProt) Alternative ID(s) of Target Chain>


> <UniProt (TrEMBL) Submitted Name of Target Chain>


> <UniProt (TrEMBL) Entry Name of Target Chain>


> <UniProt (TrEMBL) Primary ID of Target Chain>


> <UniProt (TrEMBL) Secondary ID(s) of Target Chain>


> <UniProt (TrEMBL) Alternative ID(s) of Target Chain>


$$$$

  Mrv0541 04241520572D          

 13 13  0  0  0  0            999 V2000
   35.1545   -2.9730    0.0000 C   0  0  0  0  0  0  0  0  0  0  0  0
   35.1533   -3.7998    0.0000 C   0  0  0  0  0  0  0  0  0  0  0  0
   35.8677   -4.2124    0.0000 C   0  0  0  0  0  0  0  0  0  0  0  0
   36.5836   -3.7994    0.0000 C   0  0  0  0  0  0  0  0  0  0  0  0
   36.5807   -2.9694    0.0000 C   0  0  0  0  0  0  0  0  0  0  0  0
   35.8658   -2.5605    0.0000 N   0  0  0  0  0  0  0  0  0  0  0  0
   34.4404   -2.5610    0.0000 N   0  0  0  0  0  0  0  0  0  0  0  0
   33.7265   -2.9733    0.0000 C   0  0  0  0  0  0  0  0  0  0  0  0
   33.0123   -2.5613    0.0000 N   0  0  0  0  0  0  0  0  0  0  0  0
   33.7267   -3.7978    0.0000 O   0  0  0  0  0  0  0  0  0  0  0  0
   32.2984   -2.9737    0.0000 C   0  0  0  0  0  0  0  0  0  0  0  0
   31.5843   -2.5617    0.0000 C   0  0  0  0  0  0  0  0  0  0  0  0
   30.8732   -2.1470    0.0000 C   0  0  0  0  0  0  0  0  0  0  0  0
  1  2  4  0  0  0  0
  2  3  4  0  0  0  0
  3  4  4  0  0  0  0
  4  5  4  0  0  0  0
  5  6  4  0  0  0  0
  6  1  4  0  0  0  0
  1  7  1  0  0  0  0
  7  8  1  0  0  0  0
  8  9  1  0  0  0  0
  8 10  2  0  0  0  0
  9 11  1  0  0  0  0
 11 12  1  0  0  0  0
 12 13  3  0  0  0  0
M  END
> <From> 
www.bindingDB.org

> <BindingDB Reactant_set_id>
50083246

> <Ligand InChI>
InChI=1S/C9H9N3O/c1-2-6-11-9(13)12-8-5-3-4-7-10-8/h1,3-5,7H,6H2,(H2,10,11,12,13)

> <Ligand InChI Key>
KQCMCVIXDGFTCE-UHFFFAOYSA-N

> <BindingDB MonomerID>
50006455

> <BindingDB Ligand Name>
CHEMBL3235063

> <Target Name Assigned by Curator or DataSource>
DNA Gyrase Subunit B

> <Target Source Organism According to Curator or DataSource>
Staphylococcus aureus

> <Ki (nM)>


> <IC50 (nM)>
 350000

> <Kd (nM)>


> <EC50 (nM)>


> <kon (M-1-s-1)>


> <koff (s-1)>


> <pH>


> <Temp C>


> <Curation/DataSource>
ChEMBL

> <Article DOI>
10.1021/jm401208b

> <PMID>
24098982

> <PubChem AID>


> <Patent Number>


> <Authors>
Basarab, GS; Basarab, GS; Boriack-Sjodin, PA; Boriack-Sjodin, PA; Illingworth, R; Illingworth, R; Manchester, JI; Manchester, JI; Dangel, B; Dangel, B; Sriram, S; Sriram, S

> <Institution>
AstraZeneca R&amp;D Boston

> <Link to Ligand in BindingDB>
http://www.bindingdb.org/bind/chemsearch/marvin/MolStructure.jsp?monomerid=50006455

> <Link to Ligand-Target Pair in BindingDB>
http://www.bindingdb.org/jsp/dbsearch/PrimarySearch_ki.jsp?energyterm=kJ/mole&tag=pol&polymerid=2626&target=DNA+Gyrase+Subunit+B&column=ki&startPg=0&Increment=50&submit=Search

> <Link to Ligand-Target Pair in BindingDB>
http://www.bindingdb.org/jsp/dbsearch/PrimarySearch_ki.jsp?energyterm=kJ/mole&tag=r21&monomerid=50006455&enzyme=DNA+Gyrase+Subunit+B&column=ki&startPg=0&Increment=50&submit=Search

> <Ligand HET ID in PDB>


> <PDB ID(s) for Ligand-Target Complex>


> <PubChem CID>
90654973

> <PubChem SID>
242057008

> <ChEBI ID of Ligand>


> <ChEMBL ID of Ligand>
CHEMBL3235063

> <DrugBank ID of Ligand>


> <IUPHAR_GRAC ID of Ligand>


> <KEGG ID of Ligand>


> <ZINC ID of Ligand>


> <Number of Protein Chains in Target (>1 implies a multichain complex)>
1

> <BindingDB Target Chain Sequence>
MVTALSDVNNTDNYGAGQIQVLEGLEAVRKRPGMYIGSTSERGLHHLVWEIVDNSIDEALAGYANQIEVVIEKDNWIKVTDNGRGIPVDIQEKMGRPAVEVILTVLHAGGKFGGGGYKVSGGLHGVGSSVVNALSQDLEVYVHRNETIYHQAYKKGVPQFDLKEVGTTDKTGTVIRFKADGEIFTETTVYNYETLQQRIRELAFLNKGIQITLRDERDEENVREDSYHYEGGIKSYVELLNENKEPIHDEPIYIHQSKDDIEVEIAIQYNSGYATNLLTYANNIHTYEGGTHEDGFKRALTRVLNSYGLSSKIMKEEKDRLSGEDTREGMTAIISIKHGDPQFEGQTKTKLGNSEVRQVVDKLFSEHFERFLYENPQVARTVVEKGIMAARARVAAKKAREVTRRKSALDVASLPGKLADCSSKSPEECEIFLVEGDSAGGSTKSGRDSRTQAILPLRGKILNVEKARLDRILNNNEIRQMITAFGTGIGGDFDLAKARYHKIVIMTDADVDGAHIRTLLLTFFYRFMRPLIEAGYVYIAQPPLYKLTQGKQKYYVYNDRELDKLKSELNPTPKWSIARYKGLGEMNADQLWETTMNPEHRALLQVKLEDAIEADQTFEMLMGDVVENRRQFIEDNAVYANLDF

> <PDB ID(s) of Target Chain>


> <UniProt (SwissProt) Recommended Name of Target Chain>
DNA gyrase subunit B

> <UniProt (SwissProt) Entry Name of Target Chain>
GYRB_STAAU

> <UniProt (SwissProt) Primary ID of Target Chain>
P0A0K8

> <UniProt (SwissProt) Secondary ID(s) of Target Chain>
P20832

> <UniProt (SwissProt) Alternative ID(s) of Target Chain>


> <UniProt (TrEMBL) Submitted Name of Target Chain>


> <UniProt (TrEMBL) Entry Name of Target Chain>


> <UniProt (TrEMBL) Primary ID of Target Chain>


> <UniProt (TrEMBL) Secondary ID(s) of Target Chain>


> <UniProt (TrEMBL) Alternative ID(s) of Target Chain>


$$$$

  SciTegic11261411052D

 18 20  0  0  0  0            999 V2000
   -1.2377   -0.2559    0.0000 F   0  0
    1.6202   -2.7309    0.0000 O   0  0
    0.1913   -2.7309    0.0000 N   0  0
   -1.3078   -2.5734    0.0000 N   0  0
   -1.7928   -1.9059    0.0000 N   0  0
   -0.5232   -1.4934    0.0000 C   0  0
    0.1913   -1.0809    0.0000 C   0  0
   -0.5232   -2.3184    0.0000 C   0  0
    0.1913   -0.2559    0.0000 C   0  0
   -1.3078   -1.2385    0.0000 C   0  0
    0.9057   -1.4934    0.0000 C   0  0
    0.9057   -2.3184    0.0000 C   0  0
   -0.5232    0.1566    0.0000 C   0  0
    0.9057    0.1566    0.0000 C   0  0
   -1.5628   -0.4539    0.0000 C   0  0
   -0.5232    0.9816    0.0000 C   0  0
    0.9057    0.9816    0.0000 C   0  0
    0.1913    1.3941    0.0000 C   0  0
  1 13  1  0
  2 12  2  0
  3  8  1  0
  3 12  1  0
  4  5  1  0
  4  8  1  0
  5 10  2  0
  6  7  1  0
  6  8  2  0
  6 10  1  0
  7  9  1  0
  7 11  1  0
  9 13  1  0
  9 14  2  0
 10 15  1  0
 11 12  1  0
 13 16  2  0
 14 17  1  0
 16 18  1  0
 17 18  2  0
M  END
> <From> 
www.bindingDB.org

> <BindingDB Reactant_set_id>
50462150

> <Ligand InChI>
InChI=1S/C13H12FN3O/c1-7-12-9(8-4-2-3-5-10(8)14)6-11(18)15-13(12)17-16-7/h2-5,9H,6H2,1H3,(H2,15,16,17,18)

> <Ligand InChI Key>
LRUBLHAUBIRNHW-UHFFFAOYSA-N

> <BindingDB MonomerID>
50143187

> <BindingDB Ligand Name>
CHEMBL1481051

> <Target Name Assigned by Curator or DataSource>
DNA gyrase

> <Target Source Organism According to Curator or DataSource>
Staphylococcus aureus

> <Ki (nM)>


> <IC50 (nM)>
 840000

> <Kd (nM)>


> <EC50 (nM)>


> <kon (M-1-s-1)>


> <koff (s-1)>


> <pH>


> <Temp C>


> <Curation/DataSource>
ChEMBL

> <Article DOI>
10.1016/j.bmcl.2016.01.009

> <PMID>
26786695

> <PubChem AID>


> <Patent Number>


> <Authors>
Mesleh, MF; Cross, JB; Zhang, J; Kahmann, J; Andersen, OA; Barker, J; Cheng, RK; Felicetti, B; Wood, M; Hadfield, AT; Scheich, C; Moy, TI; Yang, Q; Shotwell, J; Nguyen, K; Lippa, B; Dolle, R; Ryan, MD

> <Institution>
Cubist Pharmaceuticals

> <Link to Ligand in BindingDB>
http://www.bindingdb.org/bind/chemsearch/marvin/MolStructure.jsp?monomerid=50143187

> <Link to Ligand-Target Pair in BindingDB>
http://www.bindingdb.org/jsp/dbsearch/PrimarySearch_ki.jsp?energyterm=kJ/mole&tag=pol&polymerid=2626&target=DNA+gyrase&column=ki&startPg=0&Increment=50&submit=Search

> <Link to Ligand-Target Pair in BindingDB>
http://www.bindingdb.org/jsp/dbsearch/PrimarySearch_ki.jsp?energyterm=kJ/mole&tag=r21&monomerid=50143187&enzyme=DNA+gyrase&column=ki&startPg=0&Increment=50&submit=Search

> <Ligand HET ID in PDB>


> <PDB ID(s) for Ligand-Target Complex>


> <PubChem CID>
5771476

> <PubChem SID>
336952906

> <ChEBI ID of Ligand>


> <ChEMBL ID of Ligand>


> <DrugBank ID of Ligand>


> <IUPHAR_GRAC ID of Ligand>


> <KEGG ID of Ligand>


> <ZINC ID of Ligand>


> <Number of Protein Chains in Target (>1 implies a multichain complex)>
1

> <BindingDB Target Chain Sequence>
MVTALSDVNNTDNYGAGQIQVLEGLEAVRKRPGMYIGSTSERGLHHLVWEIVDNSIDEALAGYANQIEVVIEKDNWIKVTDNGRGIPVDIQEKMGRPAVEVILTVLHAGGKFGGGGYKVSGGLHGVGSSVVNALSQDLEVYVHRNETIYHQAYKKGVPQFDLKEVGTTDKTGTVIRFKADGEIFTETTVYNYETLQQRIRELAFLNKGIQITLRDERDEENVREDSYHYEGGIKSYVELLNENKEPIHDEPIYIHQSKDDIEVEIAIQYNSGYATNLLTYANNIHTYEGGTHEDGFKRALTRVLNSYGLSSKIMKEEKDRLSGEDTREGMTAIISIKHGDPQFEGQTKTKLGNSEVRQVVDKLFSEHFERFLYENPQVARTVVEKGIMAARARVAAKKAREVTRRKSALDVASLPGKLADCSSKSPEECEIFLVEGDSAGGSTKSGRDSRTQAILPLRGKILNVEKARLDRILNNNEIRQMITAFGTGIGGDFDLAKARYHKIVIMTDADVDGAHIRTLLLTFFYRFMRPLIEAGYVYIAQPPLYKLTQGKQKYYVYNDRELDKLKSELNPTPKWSIARYKGLGEMNADQLWETTMNPEHRALLQVKLEDAIEADQTFEMLMGDVVENRRQFIEDNAVYANLDF

> <PDB ID(s) of Target Chain>


> <UniProt (SwissProt) Recommended Name of Target Chain>
DNA gyrase subunit B

> <UniProt (SwissProt) Entry Name of Target Chain>
GYRB_STAAU

> <UniProt (SwissProt) Primary ID of Target Chain>
P0A0K8

> <UniProt (SwissProt) Secondary ID(s) of Target Chain>
P20832

> <UniProt (SwissProt) Alternative ID(s) of Target Chain>


> <UniProt (TrEMBL) Submitted Name of Target Chain>


> <UniProt (TrEMBL) Entry Name of Target Chain>


> <UniProt (TrEMBL) Primary ID of Target Chain>


> <UniProt (TrEMBL) Secondary ID(s) of Target Chain>


> <UniProt (TrEMBL) Alternative ID(s) of Target Chain>


$$$$

  SciTegic12131614172D

 17 19  0  0  0  0            999 V2000
   -2.3155    0.7475    0.0000 C   0  0
   -2.3155   -0.7475    0.0000 C   0  0
   -1.0028   -1.5132    0.0000 C   0  0
   -1.0028    1.5132    0.0000 C   0  0
    0.2917    0.7475    0.0000 C   0  0
    0.2917   -0.7475    0.0000 C   0  0
    1.7138   -1.2033    0.0000 C   0  0
    2.5889    0.0182    0.0000 C   0  0
    1.7138    1.2033    0.0000 N   0  0
    2.1855   -2.6254    0.0000 C   0  0
    1.1889   -3.7475    0.0000 C   0  0
    1.6591   -5.1719    0.0000 C   0  0
    0.6607   -6.2914    0.0000 C   0  0
   -0.8080   -5.9865    0.0000 C   0  0
   -1.2783   -4.5621    0.0000 N   0  0
   -0.2799   -3.4426    0.0000 C   0  0
    3.7889    0.0269    0.0000 O   0  0
  1  2  2  0
  2  3  1  0
  3  6  2  0
  5  4  2  0
  4  1  1  0
  5  6  1  0
  6  7  1  0
  7  8  1  0
  8  9  1  0
  9  5  1  0
  7 10  2  0
 10 11  1  0
 11 12  2  0
 12 13  1  0
 13 14  2  0
 14 15  1  0
 15 16  2  0
 16 11  1  0
  8 17  2  0
M  END
> <From> 
www.bindingDB.org

> <BindingDB Reactant_set_id>
50462155

> <Ligand InChI>
InChI=1S/C14H10N2O/c17-14-12(8-10-4-3-7-15-9-10)11-5-1-2-6-13(11)16-14/h1-9H,(H,16,17)/b12-8+

> <Ligand InChI Key>
ALVGMCFQOGIUFY-XYOKQWHBSA-N

> <BindingDB MonomerID>
50143190

> <BindingDB Ligand Name>
CHEMBL3760057

> <Target Name Assigned by Curator or DataSource>
DNA gyrase

> <Target Source Organism According to Curator or DataSource>
Staphylococcus aureus

> <Ki (nM)>


> <IC50 (nM)>
 840000

> <Kd (nM)>


> <EC50 (nM)>


> <kon (M-1-s-1)>


> <koff (s-1)>


> <pH>


> <Temp C>


> <Curation/DataSource>
ChEMBL

> <Article DOI>
10.1016/j.bmcl.2016.01.009

> <PMID>
26786695

> <PubChem AID>


> <Patent Number>


> <Authors>
Mesleh, MF; Cross, JB; Zhang, J; Kahmann, J; Andersen, OA; Barker, J; Cheng, RK; Felicetti, B; Wood, M; Hadfield, AT; Scheich, C; Moy, TI; Yang, Q; Shotwell, J; Nguyen, K; Lippa, B; Dolle, R; Ryan, MD

> <Institution>
Cubist Pharmaceuticals

> <Link to Ligand in BindingDB>
http://www.bindingdb.org/bind/chemsearch/marvin/MolStructure.jsp?monomerid=50143190

> <Link to Ligand-Target Pair in BindingDB>
http://www.bindingdb.org/jsp/dbsearch/PrimarySearch_ki.jsp?energyterm=kJ/mole&tag=pol&polymerid=2626&target=DNA+gyrase&column=ki&startPg=0&Increment=50&submit=Search

> <Link to Ligand-Target Pair in BindingDB>
http://www.bindingdb.org/jsp/dbsearch/PrimarySearch_ki.jsp?energyterm=kJ/mole&tag=r21&monomerid=50143190&enzyme=DNA+gyrase&column=ki&startPg=0&Increment=50&submit=Search

> <Ligand HET ID in PDB>
EVO

> <PDB ID(s) for Ligand-Target Complex>
5CPH

> <PubChem CID>
16039283

> <PubChem SID>
336952909

> <ChEBI ID of Ligand>


> <ChEMBL ID of Ligand>


> <DrugBank ID of Ligand>


> <IUPHAR_GRAC ID of Ligand>


> <KEGG ID of Ligand>


> <ZINC ID of Ligand>


> <Number of Protein Chains in Target (>1 implies a multichain complex)>
1

> <BindingDB Target Chain Sequence>
MVTALSDVNNTDNYGAGQIQVLEGLEAVRKRPGMYIGSTSERGLHHLVWEIVDNSIDEALAGYANQIEVVIEKDNWIKVTDNGRGIPVDIQEKMGRPAVEVILTVLHAGGKFGGGGYKVSGGLHGVGSSVVNALSQDLEVYVHRNETIYHQAYKKGVPQFDLKEVGTTDKTGTVIRFKADGEIFTETTVYNYETLQQRIRELAFLNKGIQITLRDERDEENVREDSYHYEGGIKSYVELLNENKEPIHDEPIYIHQSKDDIEVEIAIQYNSGYATNLLTYANNIHTYEGGTHEDGFKRALTRVLNSYGLSSKIMKEEKDRLSGEDTREGMTAIISIKHGDPQFEGQTKTKLGNSEVRQVVDKLFSEHFERFLYENPQVARTVVEKGIMAARARVAAKKAREVTRRKSALDVASLPGKLADCSSKSPEECEIFLVEGDSAGGSTKSGRDSRTQAILPLRGKILNVEKARLDRILNNNEIRQMITAFGTGIGGDFDLAKARYHKIVIMTDADVDGAHIRTLLLTFFYRFMRPLIEAGYVYIAQPPLYKLTQGKQKYYVYNDRELDKLKSELNPTPKWSIARYKGLGEMNADQLWETTMNPEHRALLQVKLEDAIEADQTFEMLMGDVVENRRQFIEDNAVYANLDF

> <PDB ID(s) of Target Chain>


> <UniProt (SwissProt) Recommended Name of Target Chain>
DNA gyrase subunit B

> <UniProt (SwissProt) Entry Name of Target Chain>
GYRB_STAAU

> <UniProt (SwissProt) Primary ID of Target Chain>
P0A0K8

> <UniProt (SwissProt) Secondary ID(s) of Target Chain>
P20832

> <UniProt (SwissProt) Alternative ID(s) of Target Chain>


> <UniProt (TrEMBL) Submitted Name of Target Chain>


> <UniProt (TrEMBL) Entry Name of Target Chain>


> <UniProt (TrEMBL) Primary ID of Target Chain>


> <UniProt (TrEMBL) Secondary ID(s) of Target Chain>


> <UniProt (TrEMBL) Alternative ID(s) of Target Chain>


$$$$

  SciTegic03291108512D

 17 19  0  0  0  0            999 V2000
    2.7361   -0.8378    0.0000 O   0  0
   -0.6769   -0.0128    0.0000 N   0  0
   -0.1919   -0.6803    0.0000 N   0  0
    1.3072   -0.8378    0.0000 N   0  0
    0.5927    0.3997    0.0000 C   0  0
   -0.1919    0.6546    0.0000 C   0  0
    0.5927   -0.4253    0.0000 C   0  0
    1.3072    0.8122    0.0000 C   0  0
   -0.4469    1.4392    0.0000 C   0  0
    2.0216   -0.4253    0.0000 C   0  0
    2.0216    0.3997    0.0000 C   0  0
   -1.2539    1.6108    0.0000 C   0  0
    0.1052    2.0523    0.0000 C   0  0
    1.3072    1.6372    0.0000 C   0  0
   -1.5088    2.3954    0.0000 C   0  0
   -0.1498    2.8369    0.0000 C   0  0
   -0.9568    3.0085    0.0000 C   0  0
  1 10  1  0
  2  3  1  0
  2  6  2  0
  3  7  2  0
  4  7  1  0
  4 10  1  0
  5  6  1  0
  5  7  1  0
  5  8  2  0
  6  9  1  0
  8 11  1  0
  8 14  1  0
  9 12  2  0
  9 13  1  0
 10 11  2  0
 12 15  1  0
 13 16  2  0
 15 17  2  0
 16 17  1  0
M  END
> <From> 
www.bindingDB.org

> <BindingDB Reactant_set_id>
50462151

> <Ligand InChI>
InChI=1S/C13H11N3O/c1-8-7-10(17)14-13-11(8)12(15-16-13)9-5-3-2-4-6-9/h2-7H,1H3,(H2,14,15,16,17)

> <Ligand InChI Key>
GVUZTAQXZLRFAL-UHFFFAOYSA-N

> <BindingDB MonomerID>
50143188

> <BindingDB Ligand Name>
CHEMBL1419183

> <Target Name Assigned by Curator or DataSource>
DNA gyrase

> <Target Source Organism According to Curator or DataSource>
Staphylococcus aureus

> <Ki (nM)>


> <IC50 (nM)>
 840000

> <Kd (nM)>


> <EC50 (nM)>


> <kon (M-1-s-1)>


> <koff (s-1)>


> <pH>


> <Temp C>


> <Curation/DataSource>
ChEMBL

> <Article DOI>
10.1016/j.bmcl.2016.01.009

> <PMID>
26786695

> <PubChem AID>


> <Patent Number>


> <Authors>
Mesleh, MF; Cross, JB; Zhang, J; Kahmann, J; Andersen, OA; Barker, J; Cheng, RK; Felicetti, B; Wood, M; Hadfield, AT; Scheich, C; Moy, TI; Yang, Q; Shotwell, J; Nguyen, K; Lippa, B; Dolle, R; Ryan, MD

> <Institution>
Cubist Pharmaceuticals

> <Link to Ligand in BindingDB>
http://www.bindingdb.org/bind/chemsearch/marvin/MolStructure.jsp?monomerid=50143188

> <Link to Ligand-Target Pair in BindingDB>
http://www.bindingdb.org/jsp/dbsearch/PrimarySearch_ki.jsp?energyterm=kJ/mole&tag=pol&polymerid=2626&target=DNA+gyrase&column=ki&startPg=0&Increment=50&submit=Search

> <Link to Ligand-Target Pair in BindingDB>
http://www.bindingdb.org/jsp/dbsearch/PrimarySearch_ki.jsp?energyterm=kJ/mole&tag=r21&monomerid=50143188&enzyme=DNA+gyrase&column=ki&startPg=0&Increment=50&submit=Search

> <Ligand HET ID in PDB>


> <PDB ID(s) for Ligand-Target Complex>


> <PubChem CID>
647723

> <PubChem SID>
336952907

> <ChEBI ID of Ligand>


> <ChEMBL ID of Ligand>


> <DrugBank ID of Ligand>


> <IUPHAR_GRAC ID of Ligand>


> <KEGG ID of Ligand>


> <ZINC ID of Ligand>


> <Number of Protein Chains in Target (>1 implies a multichain complex)>
1

> <BindingDB Target Chain Sequence>
MVTALSDVNNTDNYGAGQIQVLEGLEAVRKRPGMYIGSTSERGLHHLVWEIVDNSIDEALAGYANQIEVVIEKDNWIKVTDNGRGIPVDIQEKMGRPAVEVILTVLHAGGKFGGGGYKVSGGLHGVGSSVVNALSQDLEVYVHRNETIYHQAYKKGVPQFDLKEVGTTDKTGTVIRFKADGEIFTETTVYNYETLQQRIRELAFLNKGIQITLRDERDEENVREDSYHYEGGIKSYVELLNENKEPIHDEPIYIHQSKDDIEVEIAIQYNSGYATNLLTYANNIHTYEGGTHEDGFKRALTRVLNSYGLSSKIMKEEKDRLSGEDTREGMTAIISIKHGDPQFEGQTKTKLGNSEVRQVVDKLFSEHFERFLYENPQVARTVVEKGIMAARARVAAKKAREVTRRKSALDVASLPGKLADCSSKSPEECEIFLVEGDSAGGSTKSGRDSRTQAILPLRGKILNVEKARLDRILNNNEIRQMITAFGTGIGGDFDLAKARYHKIVIMTDADVDGAHIRTLLLTFFYRFMRPLIEAGYVYIAQPPLYKLTQGKQKYYVYNDRELDKLKSELNPTPKWSIARYKGLGEMNADQLWETTMNPEHRALLQVKLEDAIEADQTFEMLMGDVVENRRQFIEDNAVYANLDF

> <PDB ID(s) of Target Chain>


> <UniProt (SwissProt) Recommended Name of Target Chain>
DNA gyrase subunit B

> <UniProt (SwissProt) Entry Name of Target Chain>
GYRB_STAAU

> <UniProt (SwissProt) Primary ID of Target Chain>
P0A0K8

> <UniProt (SwissProt) Secondary ID(s) of Target Chain>
P20832

> <UniProt (SwissProt) Alternative ID(s) of Target Chain>


> <UniProt (TrEMBL) Submitted Name of Target Chain>


> <UniProt (TrEMBL) Entry Name of Target Chain>


> <UniProt (TrEMBL) Primary ID of Target Chain>


> <UniProt (TrEMBL) Secondary ID(s) of Target Chain>


> <UniProt (TrEMBL) Alternative ID(s) of Target Chain>


$$$$

  Mrv0541 04241520572D          

 12 12  0  0  0  0            999 V2000
   36.9723  -31.8419    0.0000 C   0  0  0  0  0  0  0  0  0  0  0  0
   36.9712  -32.6692    0.0000 C   0  0  0  0  0  0  0  0  0  0  0  0
   37.6860  -33.0821    0.0000 C   0  0  0  0  0  0  0  0  0  0  0  0
   38.4024  -32.6688    0.0000 C   0  0  0  0  0  0  0  0  0  0  0  0
   38.3996  -31.8382    0.0000 C   0  0  0  0  0  0  0  0  0  0  0  0
   37.6842  -31.4291    0.0000 C   0  0  0  0  0  0  0  0  0  0  0  0
   36.2578  -31.4296    0.0000 N   0  0  0  0  0  0  0  0  0  0  0  0
   35.5434  -31.8422    0.0000 C   0  0  0  0  0  0  0  0  0  0  0  0
   34.8288  -31.4299    0.0000 N   0  0  0  0  0  0  0  0  0  0  0  0
   35.5436  -32.6672    0.0000 O   0  0  0  0  0  0  0  0  0  0  0  0
   34.1144  -31.8426    0.0000 C   0  0  0  0  0  0  0  0  0  0  0  0
   33.3999  -31.4302    0.0000 C   0  0  0  0  0  0  0  0  0  0  0  0
  1  2  4  0  0  0  0
  2  3  4  0  0  0  0
  3  4  4  0  0  0  0
  4  5  4  0  0  0  0
  5  6  4  0  0  0  0
  6  1  4  0  0  0  0
  1  7  1  0  0  0  0
  7  8  1  0  0  0  0
  8  9  1  0  0  0  0
  8 10  2  0  0  0  0
  9 11  1  0  0  0  0
 11 12  1  0  0  0  0
M  END
> <From> 
www.bindingDB.org

> <BindingDB Reactant_set_id>
50083243

> <Ligand InChI>
InChI=1S/C9H12N2O/c1-2-10-9(12)11-8-6-4-3-5-7-8/h3-7H,2H2,1H3,(H2,10,11,12)

> <Ligand InChI Key>
XUFXDODGXLVPNJ-UHFFFAOYSA-N

> <BindingDB MonomerID>
50006452

> <BindingDB Ligand Name>
CHEMBL3235061

> <Target Name Assigned by Curator or DataSource>
DNA Gyrase Subunit B

> <Target Source Organism According to Curator or DataSource>
Staphylococcus aureus

> <Ki (nM)>


> <IC50 (nM)>
>1000000

> <Kd (nM)>


> <EC50 (nM)>


> <kon (M-1-s-1)>


> <koff (s-1)>


> <pH>


> <Temp C>


> <Curation/DataSource>
ChEMBL

> <Article DOI>
10.1021/jm401208b

> <PMID>
24098982

> <PubChem AID>


> <Patent Number>


> <Authors>
Basarab, GS; Basarab, GS; Boriack-Sjodin, PA; Boriack-Sjodin, PA; Illingworth, R; Illingworth, R; Manchester, JI; Manchester, JI; Dangel, B; Dangel, B; Sriram, S; Sriram, S

> <Institution>
AstraZeneca R&amp;D Boston

> <Link to Ligand in BindingDB>
http://www.bindingdb.org/bind/chemsearch/marvin/MolStructure.jsp?monomerid=50006452

> <Link to Ligand-Target Pair in BindingDB>
http://www.bindingdb.org/jsp/dbsearch/PrimarySearch_ki.jsp?energyterm=kJ/mole&tag=pol&polymerid=2626&target=DNA+Gyrase+Subunit+B&column=ki&startPg=0&Increment=50&submit=Search

> <Link to Ligand-Target Pair in BindingDB>
http://www.bindingdb.org/jsp/dbsearch/PrimarySearch_ki.jsp?energyterm=kJ/mole&tag=r21&monomerid=50006452&enzyme=DNA+Gyrase+Subunit+B&column=ki&startPg=0&Increment=50&submit=Search

> <Ligand HET ID in PDB>


> <PDB ID(s) for Ligand-Target Complex>


> <PubChem CID>
12115

> <PubChem SID>
242057005

> <ChEBI ID of Ligand>


> <ChEMBL ID of Ligand>
CHEMBL3235061

> <DrugBank ID of Ligand>


> <IUPHAR_GRAC ID of Ligand>


> <KEGG ID of Ligand>


> <ZINC ID of Ligand>


> <Number of Protein Chains in Target (>1 implies a multichain complex)>
1

> <BindingDB Target Chain Sequence>
MVTALSDVNNTDNYGAGQIQVLEGLEAVRKRPGMYIGSTSERGLHHLVWEIVDNSIDEALAGYANQIEVVIEKDNWIKVTDNGRGIPVDIQEKMGRPAVEVILTVLHAGGKFGGGGYKVSGGLHGVGSSVVNALSQDLEVYVHRNETIYHQAYKKGVPQFDLKEVGTTDKTGTVIRFKADGEIFTETTVYNYETLQQRIRELAFLNKGIQITLRDERDEENVREDSYHYEGGIKSYVELLNENKEPIHDEPIYIHQSKDDIEVEIAIQYNSGYATNLLTYANNIHTYEGGTHEDGFKRALTRVLNSYGLSSKIMKEEKDRLSGEDTREGMTAIISIKHGDPQFEGQTKTKLGNSEVRQVVDKLFSEHFERFLYENPQVARTVVEKGIMAARARVAAKKAREVTRRKSALDVASLPGKLADCSSKSPEECEIFLVEGDSAGGSTKSGRDSRTQAILPLRGKILNVEKARLDRILNNNEIRQMITAFGTGIGGDFDLAKARYHKIVIMTDADVDGAHIRTLLLTFFYRFMRPLIEAGYVYIAQPPLYKLTQGKQKYYVYNDRELDKLKSELNPTPKWSIARYKGLGEMNADQLWETTMNPEHRALLQVKLEDAIEADQTFEMLMGDVVENRRQFIEDNAVYANLDF

> <PDB ID(s) of Target Chain>


> <UniProt (SwissProt) Recommended Name of Target Chain>
DNA gyrase subunit B

> <UniProt (SwissProt) Entry Name of Target Chain>
GYRB_STAAU

> <UniProt (SwissProt) Primary ID of Target Chain>
P0A0K8

> <UniProt (SwissProt) Secondary ID(s) of Target Chain>
P20832

> <UniProt (SwissProt) Alternative ID(s) of Target Chain>


> <UniProt (TrEMBL) Submitted Name of Target Chain>


> <UniProt (TrEMBL) Entry Name of Target Chain>


> <UniProt (TrEMBL) Primary ID of Target Chain>


> <UniProt (TrEMBL) Secondary ID(s) of Target Chain>


> <UniProt (TrEMBL) Alternative ID(s) of Target Chain>


$$$$

  Mrv0541 04241520572D          

 13 13  0  0  0  0            999 V2000
    6.1993   -6.4006    0.0000 C   0  0  0  0  0  0  0  0  0  0  0  0
    6.1981   -7.2274    0.0000 C   0  0  0  0  0  0  0  0  0  0  0  0
    6.9125   -7.6401    0.0000 C   0  0  0  0  0  0  0  0  0  0  0  0
    7.6286   -7.2270    0.0000 C   0  0  0  0  0  0  0  0  0  0  0  0
    7.6258   -6.3969    0.0000 C   0  0  0  0  0  0  0  0  0  0  0  0
    6.9107   -5.9881    0.0000 N   0  0  0  0  0  0  0  0  0  0  0  0
    5.4851   -5.9885    0.0000 N   0  0  0  0  0  0  0  0  0  0  0  0
    4.7711   -6.4010    0.0000 C   0  0  0  0  0  0  0  0  0  0  0  0
    4.0570   -5.9888    0.0000 N   0  0  0  0  0  0  0  0  0  0  0  0
    4.7713   -7.2254    0.0000 O   0  0  0  0  0  0  0  0  0  0  0  0
    3.3430   -6.4013    0.0000 C   0  0  0  0  0  0  0  0  0  0  0  0
    2.6288   -5.9892    0.0000 C   0  0  0  0  0  0  0  0  0  0  0  0
    1.9149   -6.4016    0.0000 C   0  0  0  0  0  0  0  0  0  0  0  0
  1  2  4  0  0  0  0
  2  3  4  0  0  0  0
  3  4  4  0  0  0  0
  4  5  4  0  0  0  0
  5  6  4  0  0  0  0
  6  1  4  0  0  0  0
  1  7  1  0  0  0  0
  7  8  1  0  0  0  0
  8  9  1  0  0  0  0
  8 10  2  0  0  0  0
  9 11  1  0  0  0  0
 11 12  1  0  0  0  0
 12 13  1  0  0  0  0
M  END
> <From> 
www.bindingDB.org

> <BindingDB Reactant_set_id>
50083247

> <Ligand InChI>
InChI=1S/C9H13N3O/c1-2-6-11-9(13)12-8-5-3-4-7-10-8/h3-5,7H,2,6H2,1H3,(H2,10,11,12,13)

> <Ligand InChI Key>
PIRFUMYUUUXHOL-UHFFFAOYSA-N

> <BindingDB MonomerID>
50006456

> <BindingDB Ligand Name>
CHEMBL3235064

> <Target Name Assigned by Curator or DataSource>
DNA Gyrase Subunit B

> <Target Source Organism According to Curator or DataSource>
Staphylococcus aureus

> <Ki (nM)>


> <IC50 (nM)>
>1000000

> <Kd (nM)>


> <EC50 (nM)>


> <kon (M-1-s-1)>


> <koff (s-1)>


> <pH>


> <Temp C>


> <Curation/DataSource>
ChEMBL

> <Article DOI>
10.1021/jm401208b

> <PMID>
24098982

> <PubChem AID>


> <Patent Number>


> <Authors>
Basarab, GS; Basarab, GS; Boriack-Sjodin, PA; Boriack-Sjodin, PA; Illingworth, R; Illingworth, R; Manchester, JI; Manchester, JI; Dangel, B; Dangel, B; Sriram, S; Sriram, S

> <Institution>
AstraZeneca R&amp;D Boston

> <Link to Ligand in BindingDB>
http://www.bindingdb.org/bind/chemsearch/marvin/MolStructure.jsp?monomerid=50006456

> <Link to Ligand-Target Pair in BindingDB>
http://www.bindingdb.org/jsp/dbsearch/PrimarySearch_ki.jsp?energyterm=kJ/mole&tag=pol&polymerid=2626&target=DNA+Gyrase+Subunit+B&column=ki&startPg=0&Increment=50&submit=Search

> <Link to Ligand-Target Pair in BindingDB>
http://www.bindingdb.org/jsp/dbsearch/PrimarySearch_ki.jsp?energyterm=kJ/mole&tag=r21&monomerid=50006456&enzyme=DNA+Gyrase+Subunit+B&column=ki&startPg=0&Increment=50&submit=Search

> <Ligand HET ID in PDB>


> <PDB ID(s) for Ligand-Target Complex>


> <PubChem CID>
9964256

> <PubChem SID>
242057009

> <ChEBI ID of Ligand>


> <ChEMBL ID of Ligand>
CHEMBL3235064

> <DrugBank ID of Ligand>


> <IUPHAR_GRAC ID of Ligand>


> <KEGG ID of Ligand>


> <ZINC ID of Ligand>


> <Number of Protein Chains in Target (>1 implies a multichain complex)>
1

> <BindingDB Target Chain Sequence>
MVTALSDVNNTDNYGAGQIQVLEGLEAVRKRPGMYIGSTSERGLHHLVWEIVDNSIDEALAGYANQIEVVIEKDNWIKVTDNGRGIPVDIQEKMGRPAVEVILTVLHAGGKFGGGGYKVSGGLHGVGSSVVNALSQDLEVYVHRNETIYHQAYKKGVPQFDLKEVGTTDKTGTVIRFKADGEIFTETTVYNYETLQQRIRELAFLNKGIQITLRDERDEENVREDSYHYEGGIKSYVELLNENKEPIHDEPIYIHQSKDDIEVEIAIQYNSGYATNLLTYANNIHTYEGGTHEDGFKRALTRVLNSYGLSSKIMKEEKDRLSGEDTREGMTAIISIKHGDPQFEGQTKTKLGNSEVRQVVDKLFSEHFERFLYENPQVARTVVEKGIMAARARVAAKKAREVTRRKSALDVASLPGKLADCSSKSPEECEIFLVEGDSAGGSTKSGRDSRTQAILPLRGKILNVEKARLDRILNNNEIRQMITAFGTGIGGDFDLAKARYHKIVIMTDADVDGAHIRTLLLTFFYRFMRPLIEAGYVYIAQPPLYKLTQGKQKYYVYNDRELDKLKSELNPTPKWSIARYKGLGEMNADQLWETTMNPEHRALLQVKLEDAIEADQTFEMLMGDVVENRRQFIEDNAVYANLDF

> <PDB ID(s) of Target Chain>


> <UniProt (SwissProt) Recommended Name of Target Chain>
DNA gyrase subunit B

> <UniProt (SwissProt) Entry Name of Target Chain>
GYRB_STAAU

> <UniProt (SwissProt) Primary ID of Target Chain>
P0A0K8

> <UniProt (SwissProt) Secondary ID(s) of Target Chain>
P20832

> <UniProt (SwissProt) Alternative ID(s) of Target Chain>


> <UniProt (TrEMBL) Submitted Name of Target Chain>


> <UniProt (TrEMBL) Entry Name of Target Chain>


> <UniProt (TrEMBL) Primary ID of Target Chain>


> <UniProt (TrEMBL) Secondary ID(s) of Target Chain>


> <UniProt (TrEMBL) Alternative ID(s) of Target Chain>


$$$$

  Mrv0541 04241520572D          

 12 12  0  0  0  0            999 V2000
   35.0874   -7.2085    0.0000 C   0  0  0  0  0  0  0  0  0  0  0  0
   35.0863   -8.0353    0.0000 C   0  0  0  0  0  0  0  0  0  0  0  0
   35.8006   -8.4480    0.0000 C   0  0  0  0  0  0  0  0  0  0  0  0
   36.5167   -8.0349    0.0000 C   0  0  0  0  0  0  0  0  0  0  0  0
   36.5138   -7.2048    0.0000 C   0  0  0  0  0  0  0  0  0  0  0  0
   35.7988   -6.7959    0.0000 N   0  0  0  0  0  0  0  0  0  0  0  0
   34.3732   -6.7964    0.0000 N   0  0  0  0  0  0  0  0  0  0  0  0
   33.6592   -7.2088    0.0000 C   0  0  0  0  0  0  0  0  0  0  0  0
   33.6594   -8.0333    0.0000 O   0  0  0  0  0  0  0  0  0  0  0  0
   32.9451   -6.7967    0.0000 O   0  0  0  0  0  0  0  0  0  0  0  0
   32.2311   -7.2092    0.0000 C   0  0  0  0  0  0  0  0  0  0  0  0
   31.5169   -6.7970    0.0000 C   0  0  0  0  0  0  0  0  0  0  0  0
  1  2  4  0  0  0  0
  2  3  4  0  0  0  0
  3  4  4  0  0  0  0
  4  5  4  0  0  0  0
  5  6  4  0  0  0  0
  6  1  4  0  0  0  0
  1  7  1  0  0  0  0
  7  8  1  0  0  0  0
  8  9  2  0  0  0  0
  8 10  1  0  0  0  0
 10 11  1  0  0  0  0
 11 12  1  0  0  0  0
M  END
> <From> 
www.bindingDB.org

> <BindingDB Reactant_set_id>
50083251

> <Ligand InChI>
InChI=1S/C8H10N2O2/c1-2-12-8(11)10-7-5-3-4-6-9-7/h3-6H,2H2,1H3,(H,9,10,11)

> <Ligand InChI Key>
QRKMGCXMJZJTGC-UHFFFAOYSA-N

> <BindingDB MonomerID>
50006542

> <BindingDB Ligand Name>
CHEMBL3235067

> <Target Name Assigned by Curator or DataSource>
DNA Gyrase Subunit B

> <Target Source Organism According to Curator or DataSource>
Staphylococcus aureus

> <Ki (nM)>


> <IC50 (nM)>
>1000000

> <Kd (nM)>


> <EC50 (nM)>


> <kon (M-1-s-1)>


> <koff (s-1)>


> <pH>


> <Temp C>


> <Curation/DataSource>
ChEMBL

> <Article DOI>
10.1021/jm401208b

> <PMID>
24098982

> <PubChem AID>


> <Patent Number>


> <Authors>
Basarab, GS; Basarab, GS; Boriack-Sjodin, PA; Boriack-Sjodin, PA; Illingworth, R; Illingworth, R; Manchester, JI; Manchester, JI; Dangel, B; Dangel, B; Sriram, S; Sriram, S

> <Institution>
AstraZeneca R&amp;D Boston

> <Link to Ligand in BindingDB>
http://www.bindingdb.org/bind/chemsearch/marvin/MolStructure.jsp?monomerid=50006542

> <Link to Ligand-Target Pair in BindingDB>
http://www.bindingdb.org/jsp/dbsearch/PrimarySearch_ki.jsp?energyterm=kJ/mole&tag=pol&polymerid=2626&target=DNA+Gyrase+Subunit+B&column=ki&startPg=0&Increment=50&submit=Search

> <Link to Ligand-Target Pair in BindingDB>
http://www.bindingdb.org/jsp/dbsearch/PrimarySearch_ki.jsp?energyterm=kJ/mole&tag=r21&monomerid=50006542&enzyme=DNA+Gyrase+Subunit+B&column=ki&startPg=0&Increment=50&submit=Search

> <Ligand HET ID in PDB>


> <PDB ID(s) for Ligand-Target Complex>


> <PubChem CID>
235153

> <PubChem SID>
242057012

> <ChEBI ID of Ligand>


> <ChEMBL ID of Ligand>
CHEMBL3235067

> <DrugBank ID of Ligand>


> <IUPHAR_GRAC ID of Ligand>


> <KEGG ID of Ligand>


> <ZINC ID of Ligand>


> <Number of Protein Chains in Target (>1 implies a multichain complex)>
1

> <BindingDB Target Chain Sequence>
MVTALSDVNNTDNYGAGQIQVLEGLEAVRKRPGMYIGSTSERGLHHLVWEIVDNSIDEALAGYANQIEVVIEKDNWIKVTDNGRGIPVDIQEKMGRPAVEVILTVLHAGGKFGGGGYKVSGGLHGVGSSVVNALSQDLEVYVHRNETIYHQAYKKGVPQFDLKEVGTTDKTGTVIRFKADGEIFTETTVYNYETLQQRIRELAFLNKGIQITLRDERDEENVREDSYHYEGGIKSYVELLNENKEPIHDEPIYIHQSKDDIEVEIAIQYNSGYATNLLTYANNIHTYEGGTHEDGFKRALTRVLNSYGLSSKIMKEEKDRLSGEDTREGMTAIISIKHGDPQFEGQTKTKLGNSEVRQVVDKLFSEHFERFLYENPQVARTVVEKGIMAARARVAAKKAREVTRRKSALDVASLPGKLADCSSKSPEECEIFLVEGDSAGGSTKSGRDSRTQAILPLRGKILNVEKARLDRILNNNEIRQMITAFGTGIGGDFDLAKARYHKIVIMTDADVDGAHIRTLLLTFFYRFMRPLIEAGYVYIAQPPLYKLTQGKQKYYVYNDRELDKLKSELNPTPKWSIARYKGLGEMNADQLWETTMNPEHRALLQVKLEDAIEADQTFEMLMGDVVENRRQFIEDNAVYANLDF

> <PDB ID(s) of Target Chain>


> <UniProt (SwissProt) Recommended Name of Target Chain>
DNA gyrase subunit B

> <UniProt (SwissProt) Entry Name of Target Chain>
GYRB_STAAU

> <UniProt (SwissProt) Primary ID of Target Chain>
P0A0K8

> <UniProt (SwissProt) Secondary ID(s) of Target Chain>
P20832

> <UniProt (SwissProt) Alternative ID(s) of Target Chain>


> <UniProt (TrEMBL) Submitted Name of Target Chain>


> <UniProt (TrEMBL) Entry Name of Target Chain>


> <UniProt (TrEMBL) Primary ID of Target Chain>


> <UniProt (TrEMBL) Secondary ID(s) of Target Chain>


> <UniProt (TrEMBL) Alternative ID(s) of Target Chain>


$$$$

  SciTegic03291108482D

 15 15  0  0  0  0            999 V2000
    4.3709   -0.7011    0.0000 F   0  0
    3.2439   -0.3991    0.0000 F   0  0
    4.0689   -1.8281    0.0000 F   0  0
    1.5130   -2.3511    0.0000 O   0  0
    2.2275   -1.1136    0.0000 N   0  0
    0.7985   -1.1136    0.0000 N   0  0
   -0.6304   -1.1136    0.0000 N   0  0
    3.6564   -1.1136    0.0000 C   0  0
    1.5130   -1.5261    0.0000 C   0  0
    0.0840   -1.5261    0.0000 C   0  0
    2.9419   -1.5261    0.0000 C   0  0
    0.0840   -2.3511    0.0000 C   0  0
   -1.3449   -1.5261    0.0000 C   0  0
   -0.6304   -2.7636    0.0000 C   0  0
   -1.3449   -2.3511    0.0000 C   0  0
  1  8  1  0
  2  8  1  0
  3  8  1  0
  4  9  2  0
  5  9  1  0
  5 11  1  0
  6  9  1  0
  6 10  1  0
  7 10  1  0
  7 13  2  0
  8 11  1  0
 10 12  2  0
 12 14  1  0
 13 15  1  0
 14 15  2  0
M  END
> <From> 
www.bindingDB.org

> <BindingDB Reactant_set_id>
50083249

> <Ligand InChI>
InChI=1S/C8H8F3N3O/c9-8(10,11)5-13-7(15)14-6-3-1-2-4-12-6/h1-4H,5H2,(H2,12,13,14,15)

> <Ligand InChI Key>
XRSOQTLJGALIFE-UHFFFAOYSA-N

> <BindingDB MonomerID>
50006495

> <BindingDB Ligand Name>
CHEMBL1346325

> <Target Name Assigned by Curator or DataSource>
DNA Gyrase Subunit B

> <Target Source Organism According to Curator or DataSource>
Staphylococcus aureus

> <Ki (nM)>


> <IC50 (nM)>
>1000000

> <Kd (nM)>


> <EC50 (nM)>


> <kon (M-1-s-1)>


> <koff (s-1)>


> <pH>


> <Temp C>


> <Curation/DataSource>
ChEMBL

> <Article DOI>
10.1021/jm401208b

> <PMID>
24098982

> <PubChem AID>


> <Patent Number>


> <Authors>
Basarab, GS; Basarab, GS; Boriack-Sjodin, PA; Boriack-Sjodin, PA; Illingworth, R; Illingworth, R; Manchester, JI; Manchester, JI; Dangel, B; Dangel, B; Sriram, S; Sriram, S

> <Institution>
AstraZeneca R&amp;D Boston

> <Link to Ligand in BindingDB>
http://www.bindingdb.org/bind/chemsearch/marvin/MolStructure.jsp?monomerid=50006495

> <Link to Ligand-Target Pair in BindingDB>
http://www.bindingdb.org/jsp/dbsearch/PrimarySearch_ki.jsp?energyterm=kJ/mole&tag=pol&polymerid=2626&target=DNA+Gyrase+Subunit+B&column=ki&startPg=0&Increment=50&submit=Search

> <Link to Ligand-Target Pair in BindingDB>
http://www.bindingdb.org/jsp/dbsearch/PrimarySearch_ki.jsp?energyterm=kJ/mole&tag=r21&monomerid=50006495&enzyme=DNA+Gyrase+Subunit+B&column=ki&startPg=0&Increment=50&submit=Search

> <Ligand HET ID in PDB>


> <PDB ID(s) for Ligand-Target Complex>


> <PubChem CID>
934533

> <PubChem SID>
103919898

> <ChEBI ID of Ligand>


> <ChEMBL ID of Ligand>
CHEMBL1346325

> <DrugBank ID of Ligand>


> <IUPHAR_GRAC ID of Ligand>


> <KEGG ID of Ligand>


> <ZINC ID of Ligand>
ZINC26268393

> <Number of Protein Chains in Target (>1 implies a multichain complex)>
1

> <BindingDB Target Chain Sequence>
MVTALSDVNNTDNYGAGQIQVLEGLEAVRKRPGMYIGSTSERGLHHLVWEIVDNSIDEALAGYANQIEVVIEKDNWIKVTDNGRGIPVDIQEKMGRPAVEVILTVLHAGGKFGGGGYKVSGGLHGVGSSVVNALSQDLEVYVHRNETIYHQAYKKGVPQFDLKEVGTTDKTGTVIRFKADGEIFTETTVYNYETLQQRIRELAFLNKGIQITLRDERDEENVREDSYHYEGGIKSYVELLNENKEPIHDEPIYIHQSKDDIEVEIAIQYNSGYATNLLTYANNIHTYEGGTHEDGFKRALTRVLNSYGLSSKIMKEEKDRLSGEDTREGMTAIISIKHGDPQFEGQTKTKLGNSEVRQVVDKLFSEHFERFLYENPQVARTVVEKGIMAARARVAAKKAREVTRRKSALDVASLPGKLADCSSKSPEECEIFLVEGDSAGGSTKSGRDSRTQAILPLRGKILNVEKARLDRILNNNEIRQMITAFGTGIGGDFDLAKARYHKIVIMTDADVDGAHIRTLLLTFFYRFMRPLIEAGYVYIAQPPLYKLTQGKQKYYVYNDRELDKLKSELNPTPKWSIARYKGLGEMNADQLWETTMNPEHRALLQVKLEDAIEADQTFEMLMGDVVENRRQFIEDNAVYANLDF

> <PDB ID(s) of Target Chain>


> <UniProt (SwissProt) Recommended Name of Target Chain>
DNA gyrase subunit B

> <UniProt (SwissProt) Entry Name of Target Chain>
GYRB_STAAU

> <UniProt (SwissProt) Primary ID of Target Chain>
P0A0K8

> <UniProt (SwissProt) Secondary ID(s) of Target Chain>
P20832

> <UniProt (SwissProt) Alternative ID(s) of Target Chain>


> <UniProt (TrEMBL) Submitted Name of Target Chain>


> <UniProt (TrEMBL) Entry Name of Target Chain>


> <UniProt (TrEMBL) Primary ID of Target Chain>


> <UniProt (TrEMBL) Secondary ID(s) of Target Chain>


> <UniProt (TrEMBL) Alternative ID(s) of Target Chain>


$$$$

  Mrv0541 04241520572D          

 13 14  0  0  0  0            999 V2000
   13.4484   -6.5623    0.0000 C   0  0  0  0  0  0  0  0  0  0  0  0
   13.4472   -7.3898    0.0000 C   0  0  0  0  0  0  0  0  0  0  0  0
   14.1621   -7.8026    0.0000 C   0  0  0  0  0  0  0  0  0  0  0  0
   14.8785   -7.3893    0.0000 C   0  0  0  0  0  0  0  0  0  0  0  0
   14.8756   -6.5587    0.0000 C   0  0  0  0  0  0  0  0  0  0  0  0
   14.1603   -6.1496    0.0000 N   0  0  0  0  0  0  0  0  0  0  0  0
   12.7339   -6.1500    0.0000 N   0  0  0  0  0  0  0  0  0  0  0  0
   12.0195   -6.5627    0.0000 C   0  0  0  0  0  0  0  0  0  0  0  0
   11.3050   -6.1504    0.0000 N   0  0  0  0  0  0  0  0  0  0  0  0
   12.0197   -7.3877    0.0000 O   0  0  0  0  0  0  0  0  0  0  0  0
   10.5905   -6.5631    0.0000 C   0  0  0  0  0  0  0  0  0  0  0  0
    9.7691   -6.5640    0.0000 C   0  0  0  0  0  0  0  0  0  0  0  0
   10.1818   -7.2783    0.0000 C   0  0  0  0  0  0  0  0  0  0  0  0
  1  2  4  0  0  0  0
  2  3  4  0  0  0  0
  3  4  4  0  0  0  0
  4  5  4  0  0  0  0
  5  6  4  0  0  0  0
  6  1  4  0  0  0  0
  1  7  1  0  0  0  0
  7  8  1  0  0  0  0
  8  9  1  0  0  0  0
  8 10  2  0  0  0  0
  9 11  1  0  0  0  0
 12 11  1  0  0  0  0
 13 12  1  0  0  0  0
 11 13  1  0  0  0  0
M  END
> <From> 
www.bindingDB.org

> <BindingDB Reactant_set_id>
50083248

> <Ligand InChI>
InChI=1S/C9H11N3O/c13-9(11-7-4-5-7)12-8-3-1-2-6-10-8/h1-3,6-7H,4-5H2,(H2,10,11,12,13)

> <Ligand InChI Key>
WAZMMCHOXRITHO-UHFFFAOYSA-N

> <BindingDB MonomerID>
50006457

> <BindingDB Ligand Name>
CHEMBL3235065

> <Target Name Assigned by Curator or DataSource>
DNA Gyrase Subunit B

> <Target Source Organism According to Curator or DataSource>
Staphylococcus aureus

> <Ki (nM)>


> <IC50 (nM)>
 1000000

> <Kd (nM)>


> <EC50 (nM)>


> <kon (M-1-s-1)>


> <koff (s-1)>


> <pH>


> <Temp C>


> <Curation/DataSource>
ChEMBL

> <Article DOI>
10.1021/jm401208b

> <PMID>
24098982

> <PubChem AID>


> <Patent Number>


> <Authors>
Basarab, GS; Basarab, GS; Boriack-Sjodin, PA; Boriack-Sjodin, PA; Illingworth, R; Illingworth, R; Manchester, JI; Manchester, JI; Dangel, B; Dangel, B; Sriram, S; Sriram, S

> <Institution>
AstraZeneca R&amp;D Boston

> <Link to Ligand in BindingDB>
http://www.bindingdb.org/bind/chemsearch/marvin/MolStructure.jsp?monomerid=50006457

> <Link to Ligand-Target Pair in BindingDB>
http://www.bindingdb.org/jsp/dbsearch/PrimarySearch_ki.jsp?energyterm=kJ/mole&tag=pol&polymerid=2626&target=DNA+Gyrase+Subunit+B&column=ki&startPg=0&Increment=50&submit=Search

> <Link to Ligand-Target Pair in BindingDB>
http://www.bindingdb.org/jsp/dbsearch/PrimarySearch_ki.jsp?energyterm=kJ/mole&tag=r21&monomerid=50006457&enzyme=DNA+Gyrase+Subunit+B&column=ki&startPg=0&Increment=50&submit=Search

> <Ligand HET ID in PDB>


> <PDB ID(s) for Ligand-Target Complex>


> <PubChem CID>
90654974

> <PubChem SID>
242057010

> <ChEBI ID of Ligand>


> <ChEMBL ID of Ligand>
CHEMBL3235065

> <DrugBank ID of Ligand>


> <IUPHAR_GRAC ID of Ligand>


> <KEGG ID of Ligand>


> <ZINC ID of Ligand>


> <Number of Protein Chains in Target (>1 implies a multichain complex)>
1

> <BindingDB Target Chain Sequence>
MVTALSDVNNTDNYGAGQIQVLEGLEAVRKRPGMYIGSTSERGLHHLVWEIVDNSIDEALAGYANQIEVVIEKDNWIKVTDNGRGIPVDIQEKMGRPAVEVILTVLHAGGKFGGGGYKVSGGLHGVGSSVVNALSQDLEVYVHRNETIYHQAYKKGVPQFDLKEVGTTDKTGTVIRFKADGEIFTETTVYNYETLQQRIRELAFLNKGIQITLRDERDEENVREDSYHYEGGIKSYVELLNENKEPIHDEPIYIHQSKDDIEVEIAIQYNSGYATNLLTYANNIHTYEGGTHEDGFKRALTRVLNSYGLSSKIMKEEKDRLSGEDTREGMTAIISIKHGDPQFEGQTKTKLGNSEVRQVVDKLFSEHFERFLYENPQVARTVVEKGIMAARARVAAKKAREVTRRKSALDVASLPGKLADCSSKSPEECEIFLVEGDSAGGSTKSGRDSRTQAILPLRGKILNVEKARLDRILNNNEIRQMITAFGTGIGGDFDLAKARYHKIVIMTDADVDGAHIRTLLLTFFYRFMRPLIEAGYVYIAQPPLYKLTQGKQKYYVYNDRELDKLKSELNPTPKWSIARYKGLGEMNADQLWETTMNPEHRALLQVKLEDAIEADQTFEMLMGDVVENRRQFIEDNAVYANLDF

> <PDB ID(s) of Target Chain>


> <UniProt (SwissProt) Recommended Name of Target Chain>
DNA gyrase subunit B

> <UniProt (SwissProt) Entry Name of Target Chain>
GYRB_STAAU

> <UniProt (SwissProt) Primary ID of Target Chain>
P0A0K8

> <UniProt (SwissProt) Secondary ID(s) of Target Chain>
P20832

> <UniProt (SwissProt) Alternative ID(s) of Target Chain>


> <UniProt (TrEMBL) Submitted Name of Target Chain>


> <UniProt (TrEMBL) Entry Name of Target Chain>


> <UniProt (TrEMBL) Primary ID of Target Chain>


> <UniProt (TrEMBL) Secondary ID(s) of Target Chain>


> <UniProt (TrEMBL) Alternative ID(s) of Target Chain>


$$$$
 
  Mrv0541 11221409182D          

 44 47  0  0  0  0            999 V2000
   -0.2473    0.9000    0.0000 C   0  0  0  0  0  0  0  0  0  0  0  0
   -0.2484    0.0727    0.0000 C   0  0  0  0  0  0  0  0  0  0  0  0
    0.4664   -0.3402    0.0000 C   0  0  0  0  0  0  0  0  0  0  0  0
    0.4646    1.3128    0.0000 C   0  0  0  0  0  0  0  0  0  0  0  0
    1.1800    0.9037    0.0000 C   0  0  0  0  0  0  0  0  0  0  0  0
    1.1788    0.0752    0.0000 C   0  0  0  0  0  0  0  0  0  0  0  0
    1.8918   -0.3378    0.0000 C   0  0  0  0  0  0  0  0  0  0  0  0
    2.6104    0.0732    0.0000 C   0  0  0  0  0  0  0  0  0  0  0  0
    2.6116    0.9017    0.0000 C   0  0  0  0  0  0  0  0  0  0  0  0
    1.8941    1.3192    0.0000 O   0  0  0  0  0  0  0  0  0  0  0  0
    3.3271    1.3124    0.0000 O   0  0  0  0  0  0  0  0  0  0  0  0
    3.3237   -0.3413    0.0000 N   0  0  0  0  0  0  0  0  0  0  0  0
    4.0394    0.0692    0.0000 C   0  0  0  0  0  0  0  0  0  0  0  0
    4.7527   -0.3453    0.0000 C   0  0  0  0  0  0  0  0  0  0  0  0
    4.0417    0.8942    0.0000 O   0  0  0  0  0  0  0  0  0  0  0  0
    4.7449   -1.1677    0.0000 C   0  0  0  0  0  0  0  0  0  0  0  0
    5.4574   -1.5821    0.0000 C   0  0  0  0  0  0  0  0  0  0  0  0
    6.1740   -1.1716    0.0000 C   0  0  0  0  0  0  0  0  0  0  0  0
    6.1737   -0.3423    0.0000 C   0  0  0  0  0  0  0  0  0  0  0  0
    5.4606    0.0684    0.0000 C   0  0  0  0  0  0  0  0  0  0  0  0
    6.8879   -1.5851    0.0000 O   0  0  0  0  0  0  0  0  0  0  0  0
    5.4547   -2.4071    0.0000 C   0  0  0  0  0  0  0  0  0  0  0  0
    6.1678   -2.8220    0.0000 C   0  0  0  0  0  0  0  0  0  0  0  0
    6.1651   -3.6470    0.0000 C   0  0  0  0  0  0  0  0  0  0  0  0
    5.4493   -4.0571    0.0000 C   0  0  0  0  0  0  0  0  0  0  0  0
    6.8782   -4.0618    0.0000 C   0  0  0  0  0  0  0  0  0  0  0  0
    1.8894   -1.1628    0.0000 O   0  0  0  0  0  0  0  0  0  0  0  0
   -0.9618    1.3124    0.0000 O   0  0  0  0  0  0  0  0  0  0  0  0
   -1.6762    0.8997    0.0000 C   0  0  2  0  0  0  0  0  0  0  0  0
   -2.3887    1.3169    0.0000 O   0  0  0  0  0  0  0  0  0  0  0  0
   -3.1009    0.9077    0.0000 C   0  0  0  0  0  0  0  0  0  0  0  0
   -3.1050    0.0824    0.0000 C   0  0  1  0  0  0  0  0  0  0  0  0
   -2.3906   -0.3322    0.0000 C   0  0  2  0  0  0  0  0  0  0  0  0
   -1.6721    0.0786    0.0000 C   0  0  1  0  0  0  0  0  0  0  0  0
   -0.9575   -0.3336    0.0000 O   0  0  0  0  0  0  0  0  0  0  0  0
   -2.3932   -1.1572    0.0000 O   0  0  0  0  0  0  0  0  0  0  0  0
   -3.8209   -0.3276    0.0000 O   0  0  0  0  0  0  0  0  0  0  0  0
   -4.5339    0.0874    0.0000 C   0  0  0  0  0  0  0  0  0  0  0  0
   -3.3208    1.7083    0.0000 C   0  0  0  0  0  0  0  0  0  0  0  0
   -3.9042    0.6958    0.0000 C   0  0  0  0  0  0  0  0  0  0  0  0
   -3.1090   -1.5674    0.0000 C   0  0  0  0  0  0  0  0  0  0  0  0
   -3.1116   -2.3924    0.0000 N   0  0  0  0  0  0  0  0  0  0  0  0
   -3.8221   -1.1526    0.0000 O   0  0  0  0  0  0  0  0  0  0  0  0
    0.4621    2.1378    0.0000 C   0  0  0  0  0  0  0  0  0  0  0  0
 18 21  1  0  0  0  0
  9 10  1  0  0  0  0
 17 22  1  0  0  0  0
  5  6  1  0  0  0  0
 22 23  1  0  0  0  0
  9 11  2  0  0  0  0
 23 24  2  0  0  0  0
 24 25  1  0  0  0  0
  8 12  1  0  0  0  0
 24 26  1  0  0  0  0
  2  3  1  0  0  0  0
  7 27  1  0  0  0  0
 12 13  1  0  0  0  0
  1 28  1  0  0  0  0
  3  6  2  0  0  0  0
 29 28  1  1  0  0  0
 29 30  1  0  0  0  0
 13 14  1  0  0  0  0
  1  2  2  0  0  0  0
 13 15  2  0  0  0  0
  5  4  2  0  0  0  0
 14 16  2  0  0  0  0
 34 29  1  0  0  0  0
 30 31  1  0  0  0  0
 32 31  1  0  0  0  0
 33 32  1  0  0  0  0
 33 34  1  0  0  0  0
  4  1  1  0  0  0  0
 34 35  1  6  0  0  0
 16 17  1  0  0  0  0
 33 36  1  6  0  0  0
  5 10  1  0  0  0  0
 32 37  1  1  0  0  0
 17 18  2  0  0  0  0
 37 38  1  0  0  0  0
  6  7  1  0  0  0  0
 31 39  1  0  0  0  0
 18 19  1  0  0  0  0
 31 40  1  0  0  0  0
  7  8  2  0  0  0  0
 36 41  1  0  0  0  0
 19 20  2  0  0  0  0
 41 42  1  0  0  0  0
 20 14  1  0  0  0  0
 41 43  2  0  0  0  0
  8  9  1  0  0  0  0
  4 44  1  0  0  0  0
M  END
> <From> 
www.bindingDB.org

> <BindingDB Reactant_set_id>
50543825

> <Ligand InChI>
InChI=1S/C31H36N2O11/c1-14(2)7-8-16-13-17(9-11-19(16)34)27(37)33-21-22(35)18-10-12-20(15(3)24(18)42-28(21)38)41-29-23(36)25(43-30(32)39)26(40-6)31(4,5)44-29/h7,9-13,23,25-26,29,34-36H,8H2,1-6H3,(H2,32,39)(H,33,37)/t23-,25+,26-,29-/m1/s1

> <Ligand InChI Key>
YJQPYGGHQPGBLI-KGSXXDOSSA-N

> <BindingDB MonomerID>
50226181

> <BindingDB Ligand Name>
(3R,4S,5R,6R)-5-hydroxy-6-(4-hydroxy-3-(4-hydroxy-3-(3-methylbut-2-enyl)benzamido)-2-oxo-2H-chromen-7-yloxy)-3-methoxy-2,2-dimethyl-tetrahydro-2H-pyran-4-yl carbamate::(3R,4S,5R,6R)-5-hydroxy-6-(4-hydroxy-3-(4-hydroxy-3-(3-methylbut-2-enyl)benzamido)-8-methyl-2-oxo-2H-chromen-7-yloxy)-3-methoxy-2,2-dimethyl-tetrahydro-2H-pyran-4-yl carbamate::CHEMBL36506::Carbamic acid (3R,4S,5R,6R)-5-hydroxy-6-{4-hydroxy-3-[4-hydroxy-3-(3-methyl-but-2-enyl)-benzoylamino]-8-methyl-2-oxo-2H-chromen-7-yloxy}-3-methoxy-2,2-dimethyl-tetrahydro-pyran-4-yl ester::Carbamic acid (3R,4S,5R,6R)-5-hydroxy-6-{4-hydroxy-3-[4-hydroxy-3-(4-methyl-pent-3-enyl)-benzoylamino]-8-methyl-2-oxo-2H-chromen-7-yloxy}-3-methoxy-2,2-dimethyl-tetrahydro-pyran-4-yl ester::Carbamic acid 5-hydroxy-6-{4-hydroxy-3-[4-hydroxy-3-(3-methyl-but-2-enyl)-benzoylamino]-8-methyl-2-oxo-2H-chromen-7-yloxy}-3-methoxy-2,2-dimethyl-tetrahydro-pyran-4-yl ester::Carbamic acid 5-hydroxy-6-{4-hydroxy-3-[4-hydroxy-3-(3-methyl-but-2-enyl)-benzoylamino]-8-methyl-2-oxo-2H-chromen-7-yloxy}-3-methoxy-2,2-dimethyl-tetrahydro-pyran-4-yl ester(Novobiocin)::NOVOBIOCIN

> <Target Name Assigned by Curator or DataSource>
DNA Gyrase Subunit B

> <Target Source Organism According to Curator or DataSource>
Escherichia coli

> <Ki (nM)>
 7.0

> <IC50 (nM)>


> <Kd (nM)>


> <EC50 (nM)>


> <kon (M-1-s-1)>


> <koff (s-1)>


> <pH>


> <Temp C>


> <Curation/DataSource>
ChEMBL

> <Article DOI>
10.1016/j.ejmech.2016.08.034

> <PMID>
27569197

> <PubChem AID>


> <Patent Number>


> <Authors>
Chaudhari, K; Surana, S; Jain, P; Patel, HM

> <Institution>
R. C. Patel Institute of Pharmaceutical Education and Research

> <Link to Ligand in BindingDB>
http://www.bindingdb.org/bind/chemsearch/marvin/MolStructure.jsp?monomerid=50226181

> <Link to Ligand-Target Pair in BindingDB>
http://www.bindingdb.org/jsp/dbsearch/PrimarySearch_ki.jsp?energyterm=kJ/mole&tag=pol&polymerid=2630&target=DNA+Gyrase+Subunit+B&column=ki&startPg=0&Increment=50&submit=Search

> <Link to Ligand-Target Pair in BindingDB>
http://www.bindingdb.org/jsp/dbsearch/PrimarySearch_ki.jsp?energyterm=kJ/mole&tag=r21&monomerid=50226181&enzyme=DNA+Gyrase+Subunit+B&column=ki&startPg=0&Increment=50&submit=Search

> <Ligand HET ID in PDB>
NOV

> <PDB ID(s) for Ligand-Target Complex>
1AJ6,1KIJ,1S14,3LPS,4URN,4URO

> <PubChem CID>
54675769

> <PubChem SID>
104097057

> <ChEBI ID of Ligand>
28368

> <ChEMBL ID of Ligand>
CHEMBL36506

> <DrugBank ID of Ligand>
DB01051

> <IUPHAR_GRAC ID of Ligand>


> <KEGG ID of Ligand>
C05080

> <ZINC ID of Ligand>
ZINC14879999

> <Number of Protein Chains in Target (>1 implies a multichain complex)>
1

> <BindingDB Target Chain Sequence>
MSNSYDSSSIKVLKGLDAVRKRPGMYIGDTDDGTGLHHMVFEVVDNAIDEALAGHCKEII
VTIHADNSVSVQDDGRGIPTGIHPEEGVSAAEVIMTVLHAGGKFDDNSYKVSGGLHGVGV
SVVNALSQKLELVIQREGKIHRQIYEHGVPQAPLAVTGETEKTGTMVRFWPSLETFTNVT
EFEYEILAKRLRELSFLNSGVSIRLRDKRDGKEDHFHYEGGIKAFVEYLNKNKTPIHPNI
FYFSTEKDGIGVEVALQWNDGFQENIYCFTNNIPQRDGGTHLAGFRAAMTRTLNAYMDKE
GYSKKAKVSATGDDAREGLIAVVSVKVPDPKFSSQTKDKLVSSEVKSAVEQQMNELLAEY
LLENPTDAKIVVGKIIDAARAREAARRAREMTRRKGALDLAGLPGKLADCQERDPALSEL
YLVEGDSAGGSAKQGRNRKNQAILPLKGKILNVEKARFDKMLSSQEVATLITALGCGIGR
DEYNPDKLRYHSIIIMTDADVDGSHIRTLLLTFFYRQMPEIVERGHVYIAQPPLYKVKKG
KQEQYIKDDEAMDQYQISIALDGATLHTNASAPALAGEALEKLVSEYNATQKMINRMERR
YPKAMLKELIYQPTLTEADLSDEQTVTRWVNALVSELNDKEQHGSQWKFDVHTNAEQNLF
EPIVRVRTHGVDTDYPLDHEFITGGEYRRICTLGEKLRGLLEEDAFIERGERRQPVASFE
QALDWLVKESRRGLSIQRYKGLGEMNPEQLWETTMDPESRRMLRVTVKDAIAADQLFTTL
MGDAVEPRRAFIEENALKAANIDI

> <PDB ID(s) of Target Chain>
1KZN,3G7E,3NUH,4DUH,4HYP,4KFG,4PRV,4PRX,4PU9,4WUB,4WUC,4WUD,4XTJ,4ZVI,5L3J,5MMN,5MMO,5MMP,5Z4H,5Z4O,5Z9B,5Z9E,5Z9F,5Z9L,5Z9M,5Z9N,5Z9Q,6ENG,6F86,6F8J,6F94,6F96

> <UniProt (SwissProt) Recommended Name of Target Chain>
DNA gyrase subunit B

> <UniProt (SwissProt) Entry Name of Target Chain>
GYRB_ECOLI

> <UniProt (SwissProt) Primary ID of Target Chain>
P0AES6

> <UniProt (SwissProt) Secondary ID(s) of Target Chain>
O08438,P06982,Q2M811

> <UniProt (SwissProt) Alternative ID(s) of Target Chain>


> <UniProt (TrEMBL) Submitted Name of Target Chain>


> <UniProt (TrEMBL) Entry Name of Target Chain>


> <UniProt (TrEMBL) Primary ID of Target Chain>


> <UniProt (TrEMBL) Secondary ID(s) of Target Chain>


> <UniProt (TrEMBL) Alternative ID(s) of Target Chain>


$$$$

  Mrv0541 11241412382D          

 31 34  0  0  0  0            999 V2000
    0.3372    3.5913    0.0000 C   0  0  0  0  0  0  0  0  0  0  0  0
   -0.3684    2.3498    0.0000 N   0  0  0  0  0  0  0  0  0  0  0  0
   -0.3695    1.5225    0.0000 C   0  0  0  0  0  0  0  0  0  0  0  0
    0.3452    1.1097    0.0000 C   0  0  0  0  0  0  0  0  0  0  0  0
    1.0616    1.5230    0.0000 C   0  0  0  0  0  0  0  0  0  0  0  0
    1.0588    2.3534    0.0000 N   0  0  0  0  0  0  0  0  0  0  0  0
    0.3434    2.7625    0.0000 C   0  0  0  0  0  0  0  0  0  0  0  0
    0.3469    0.2869    0.0000 C   0  0  0  0  0  0  0  0  0  0  0  0
   -0.3692   -0.1248    0.0000 C   0  0  0  0  0  0  0  0  0  0  0  0
    1.0620   -0.9457    0.0000 C   0  0  0  0  0  0  0  0  0  0  0  0
    1.0590   -0.1229    0.0000 C   0  0  0  0  0  0  0  0  0  0  0  0
    1.0542    4.0021    0.0000 O   0  0  0  0  0  0  0  0  0  0  0  0
   -0.3781    4.0023    0.0000 C   0  0  0  0  0  0  0  0  0  0  0  0
    0.3330    4.4163    0.0000 C   0  0  0  0  0  0  0  0  0  0  0  0
    1.7724    0.2914    0.0000 F   0  0  0  0  0  0  0  0  0  0  0  0
    1.7266   -1.4376    0.0000 C   0  0  2  0  0  0  0  0  0  0  0  0
    1.7198   -2.2625    0.0000 O   0  0  0  0  0  0  0  0  0  0  0  0
    2.5023   -2.5239    0.0000 C   0  0  0  0  0  0  0  0  0  0  0  0
    2.9927   -1.8605    0.0000 C   0  0  0  0  0  0  0  0  0  0  0  0
    2.5133   -1.1892    0.0000 C   0  0  0  0  0  0  0  0  0  0  0  0
    0.3451   -1.3624    0.0000 C   0  0  0  0  0  0  0  0  0  0  0  0
   -0.3742   -0.9504    0.0000 C   0  0  0  0  0  0  0  0  0  0  0  0
   -0.9884   -1.5071    0.0000 N   0  0  0  0  0  0  0  0  0  0  0  0
   -0.6487   -2.2633    0.0000 C   0  0  0  0  0  0  0  0  0  0  0  0
    0.1754   -2.1738    0.0000 N   0  0  0  0  0  0  0  0  0  0  0  0
   -1.0587   -2.9791    0.0000 N   0  0  0  0  0  0  0  0  0  0  0  0
   -1.8837   -2.9819    0.0000 C   0  0  0  0  0  0  0  0  0  0  0  0
   -2.2937   -3.6977    0.0000 N   0  0  0  0  0  0  0  0  0  0  0  0
   -2.2986   -2.2689    0.0000 O   0  0  0  0  0  0  0  0  0  0  0  0
   -3.1187   -3.7005    0.0000 C   0  0  0  0  0  0  0  0  0  0  0  0
   -3.5287   -4.4163    0.0000 C   0  0  0  0  0  0  0  0  0  0  0  0
  2  3  2  0  0  0  0
  3  4  1  0  0  0  0
  4  5  2  0  0  0  0
  5  6  1  0  0  0  0
  6  7  2  0  0  0  0
  7  2  1  0  0  0  0
  8  9  1  0  0  0  0
  9 22  2  0  0  0  0
 21 10  2  0  0  0  0
 10 11  1  0  0  0  0
 11  8  2  0  0  0  0
  4  8  1  0  0  0  0
  7  1  1  0  0  0  0
  1 12  1  0  0  0  0
  1 13  1  0  0  0  0
  1 14  1  0  0  0  0
 11 15  1  0  0  0  0
 16 17  1  0  0  0  0
 17 18  1  0  0  0  0
 18 19  1  0  0  0  0
 19 20  1  0  0  0  0
 16 20  1  0  0  0  0
 16 10  1  1  0  0  0
 21 22  1  0  0  0  0
 22 23  1  0  0  0  0
 23 24  2  0  0  0  0
 24 25  1  0  0  0  0
 25 21  1  0  0  0  0
 24 26  1  0  0  0  0
 26 27  1  0  0  0  0
 27 28  1  0  0  0  0
 27 29  2  0  0  0  0
 28 30  1  0  0  0  0
 30 31  1  0  0  0  0
M  END
> <From> 
www.bindingDB.org

> <BindingDB Reactant_set_id>
50957624

> <Ligand InChI>
InChI=1S/C21H25FN6O3/c1-4-23-20(29)28-19-26-13-8-12(11-9-24-18(25-10-11)21(2,3)30)16(22)15(17(13)27-19)14-6-5-7-31-14/h8-10,14,30H,4-7H2,1-3H3,(H3,23,26,27,28,29)/t14-/m1/s1

> <Ligand InChI Key>
BKUISYCLLXCBJV-CQSZACIVSA-N

> <BindingDB MonomerID>
50393079

> <BindingDB Ligand Name>
CHEMBL2152855::US9040542, 23

> <Target Name Assigned by Curator or DataSource>
DNA Gyrase Subunit B

> <Target Source Organism According to Curator or DataSource>
Staphylococcus aureus

> <Ki (nM)>
 9

> <IC50 (nM)>


> <Kd (nM)>


> <EC50 (nM)>


> <kon (M-1-s-1)>


> <koff (s-1)>


> <pH>


> <Temp C>


> <Curation/DataSource>
ChEMBL

> <Article DOI>
10.1021/ml300234y

> <PMID>
24900376

> <PubChem AID>


> <Patent Number>


> <Authors>
Abdel-Magid, AF

> <Institution>
TBA

> <Link to Ligand in BindingDB>
http://www.bindingdb.org/bind/chemsearch/marvin/MolStructure.jsp?monomerid=50393079

> <Link to Ligand-Target Pair in BindingDB>
http://www.bindingdb.org/jsp/dbsearch/PrimarySearch_ki.jsp?energyterm=kJ/mole&tag=pol&polymerid=2626&target=DNA+Gyrase+Subunit+B&column=ki&startPg=0&Increment=50&submit=Search

> <Link to Ligand-Target Pair in BindingDB>
http://www.bindingdb.org/jsp/dbsearch/PrimarySearch_ki.jsp?energyterm=kJ/mole&tag=r21&monomerid=50393079&enzyme=DNA+Gyrase+Subunit+B&column=ki&startPg=0&Increment=50&submit=Search

> <Ligand HET ID in PDB>


> <PDB ID(s) for Ligand-Target Complex>


> <PubChem CID>
57524959

> <PubChem SID>
163342103

> <ChEBI ID of Ligand>


> <ChEMBL ID of Ligand>
CHEMBL2152855

> <DrugBank ID of Ligand>


> <IUPHAR_GRAC ID of Ligand>


> <KEGG ID of Ligand>


> <ZINC ID of Ligand>
ZINC95566004

> <Number of Protein Chains in Target (>1 implies a multichain complex)>
1

> <BindingDB Target Chain Sequence>
MVTALSDVNNTDNYGAGQIQVLEGLEAVRKRPGMYIGSTSERGLHHLVWEIVDNSIDEALAGYANQIEVVIEKDNWIKVTDNGRGIPVDIQEKMGRPAVEVILTVLHAGGKFGGGGYKVSGGLHGVGSSVVNALSQDLEVYVHRNETIYHQAYKKGVPQFDLKEVGTTDKTGTVIRFKADGEIFTETTVYNYETLQQRIRELAFLNKGIQITLRDERDEENVREDSYHYEGGIKSYVELLNENKEPIHDEPIYIHQSKDDIEVEIAIQYNSGYATNLLTYANNIHTYEGGTHEDGFKRALTRVLNSYGLSSKIMKEEKDRLSGEDTREGMTAIISIKHGDPQFEGQTKTKLGNSEVRQVVDKLFSEHFERFLYENPQVARTVVEKGIMAARARVAAKKAREVTRRKSALDVASLPGKLADCSSKSPEECEIFLVEGDSAGGSTKSGRDSRTQAILPLRGKILNVEKARLDRILNNNEIRQMITAFGTGIGGDFDLAKARYHKIVIMTDADVDGAHIRTLLLTFFYRFMRPLIEAGYVYIAQPPLYKLTQGKQKYYVYNDRELDKLKSELNPTPKWSIARYKGLGEMNADQLWETTMNPEHRALLQVKLEDAIEADQTFEMLMGDVVENRRQFIEDNAVYANLDF

> <PDB ID(s) of Target Chain>


> <UniProt (SwissProt) Recommended Name of Target Chain>
DNA gyrase subunit B

> <UniProt (SwissProt) Entry Name of Target Chain>
GYRB_STAAU

> <UniProt (SwissProt) Primary ID of Target Chain>
P0A0K8

> <UniProt (SwissProt) Secondary ID(s) of Target Chain>
P20832

> <UniProt (SwissProt) Alternative ID(s) of Target Chain>


> <UniProt (TrEMBL) Submitted Name of Target Chain>


> <UniProt (TrEMBL) Entry Name of Target Chain>


> <UniProt (TrEMBL) Primary ID of Target Chain>


> <UniProt (TrEMBL) Secondary ID(s) of Target Chain>


> <UniProt (TrEMBL) Alternative ID(s) of Target Chain>


$$$$
 
  Mrv0541 11221409182D          

 44 47  0  0  0  0            999 V2000
   -0.2473    0.9000    0.0000 C   0  0  0  0  0  0  0  0  0  0  0  0
   -0.2484    0.0727    0.0000 C   0  0  0  0  0  0  0  0  0  0  0  0
    0.4664   -0.3402    0.0000 C   0  0  0  0  0  0  0  0  0  0  0  0
    0.4646    1.3128    0.0000 C   0  0  0  0  0  0  0  0  0  0  0  0
    1.1800    0.9037    0.0000 C   0  0  0  0  0  0  0  0  0  0  0  0
    1.1788    0.0752    0.0000 C   0  0  0  0  0  0  0  0  0  0  0  0
    1.8918   -0.3378    0.0000 C   0  0  0  0  0  0  0  0  0  0  0  0
    2.6104    0.0732    0.0000 C   0  0  0  0  0  0  0  0  0  0  0  0
    2.6116    0.9017    0.0000 C   0  0  0  0  0  0  0  0  0  0  0  0
    1.8941    1.3192    0.0000 O   0  0  0  0  0  0  0  0  0  0  0  0
    3.3271    1.3124    0.0000 O   0  0  0  0  0  0  0  0  0  0  0  0
    3.3237   -0.3413    0.0000 N   0  0  0  0  0  0  0  0  0  0  0  0
    4.0394    0.0692    0.0000 C   0  0  0  0  0  0  0  0  0  0  0  0
    4.7527   -0.3453    0.0000 C   0  0  0  0  0  0  0  0  0  0  0  0
    4.0417    0.8942    0.0000 O   0  0  0  0  0  0  0  0  0  0  0  0
    4.7449   -1.1677    0.0000 C   0  0  0  0  0  0  0  0  0  0  0  0
    5.4574   -1.5821    0.0000 C   0  0  0  0  0  0  0  0  0  0  0  0
    6.1740   -1.1716    0.0000 C   0  0  0  0  0  0  0  0  0  0  0  0
    6.1737   -0.3423    0.0000 C   0  0  0  0  0  0  0  0  0  0  0  0
    5.4606    0.0684    0.0000 C   0  0  0  0  0  0  0  0  0  0  0  0
    6.8879   -1.5851    0.0000 O   0  0  0  0  0  0  0  0  0  0  0  0
    5.4547   -2.4071    0.0000 C   0  0  0  0  0  0  0  0  0  0  0  0
    6.1678   -2.8220    0.0000 C   0  0  0  0  0  0  0  0  0  0  0  0
    6.1651   -3.6470    0.0000 C   0  0  0  0  0  0  0  0  0  0  0  0
    5.4493   -4.0571    0.0000 C   0  0  0  0  0  0  0  0  0  0  0  0
    6.8782   -4.0618    0.0000 C   0  0  0  0  0  0  0  0  0  0  0  0
    1.8894   -1.1628    0.0000 O   0  0  0  0  0  0  0  0  0  0  0  0
   -0.9618    1.3124    0.0000 O   0  0  0  0  0  0  0  0  0  0  0  0
   -1.6762    0.8997    0.0000 C   0  0  2  0  0  0  0  0  0  0  0  0
   -2.3887    1.3169    0.0000 O   0  0  0  0  0  0  0  0  0  0  0  0
   -3.1009    0.9077    0.0000 C   0  0  0  0  0  0  0  0  0  0  0  0
   -3.1050    0.0824    0.0000 C   0  0  1  0  0  0  0  0  0  0  0  0
   -2.3906   -0.3322    0.0000 C   0  0  2  0  0  0  0  0  0  0  0  0
   -1.6721    0.0786    0.0000 C   0  0  1  0  0  0  0  0  0  0  0  0
   -0.9575   -0.3336    0.0000 O   0  0  0  0  0  0  0  0  0  0  0  0
   -2.3932   -1.1572    0.0000 O   0  0  0  0  0  0  0  0  0  0  0  0
   -3.8209   -0.3276    0.0000 O   0  0  0  0  0  0  0  0  0  0  0  0
   -4.5339    0.0874    0.0000 C   0  0  0  0  0  0  0  0  0  0  0  0
   -3.3208    1.7083    0.0000 C   0  0  0  0  0  0  0  0  0  0  0  0
   -3.9042    0.6958    0.0000 C   0  0  0  0  0  0  0  0  0  0  0  0
   -3.1090   -1.5674    0.0000 C   0  0  0  0  0  0  0  0  0  0  0  0
   -3.1116   -2.3924    0.0000 N   0  0  0  0  0  0  0  0  0  0  0  0
   -3.8221   -1.1526    0.0000 O   0  0  0  0  0  0  0  0  0  0  0  0
    0.4621    2.1378    0.0000 C   0  0  0  0  0  0  0  0  0  0  0  0
 18 21  1  0  0  0  0
  9 10  1  0  0  0  0
 17 22  1  0  0  0  0
  5  6  1  0  0  0  0
 22 23  1  0  0  0  0
  9 11  2  0  0  0  0
 23 24  2  0  0  0  0
 24 25  1  0  0  0  0
  8 12  1  0  0  0  0
 24 26  1  0  0  0  0
  2  3  1  0  0  0  0
  7 27  1  0  0  0  0
 12 13  1  0  0  0  0
  1 28  1  0  0  0  0
  3  6  2  0  0  0  0
 29 28  1  1  0  0  0
 29 30  1  0  0  0  0
 13 14  1  0  0  0  0
  1  2  2  0  0  0  0
 13 15  2  0  0  0  0
  5  4  2  0  0  0  0
 14 16  2  0  0  0  0
 34 29  1  0  0  0  0
 30 31  1  0  0  0  0
 32 31  1  0  0  0  0
 33 32  1  0  0  0  0
 33 34  1  0  0  0  0
  4  1  1  0  0  0  0
 34 35  1  6  0  0  0
 16 17  1  0  0  0  0
 33 36  1  6  0  0  0
  5 10  1  0  0  0  0
 32 37  1  1  0  0  0
 17 18  2  0  0  0  0
 37 38  1  0  0  0  0
  6  7  1  0  0  0  0
 31 39  1  0  0  0  0
 18 19  1  0  0  0  0
 31 40  1  0  0  0  0
  7  8  2  0  0  0  0
 36 41  1  0  0  0  0
 19 20  2  0  0  0  0
 41 42  1  0  0  0  0
 20 14  1  0  0  0  0
 41 43  2  0  0  0  0
  8  9  1  0  0  0  0
  4 44  1  0  0  0  0
M  END
> <From> 
www.bindingDB.org

> <BindingDB Reactant_set_id>
50543799

> <Ligand InChI>
InChI=1S/C31H36N2O11/c1-14(2)7-8-16-13-17(9-11-19(16)34)27(37)33-21-22(35)18-10-12-20(15(3)24(18)42-28(21)38)41-29-23(36)25(43-30(32)39)26(40-6)31(4,5)44-29/h7,9-13,23,25-26,29,34-36H,8H2,1-6H3,(H2,32,39)(H,33,37)/t23-,25+,26-,29-/m1/s1

> <Ligand InChI Key>
YJQPYGGHQPGBLI-KGSXXDOSSA-N

> <BindingDB MonomerID>
50226181

> <BindingDB Ligand Name>
(3R,4S,5R,6R)-5-hydroxy-6-(4-hydroxy-3-(4-hydroxy-3-(3-methylbut-2-enyl)benzamido)-2-oxo-2H-chromen-7-yloxy)-3-methoxy-2,2-dimethyl-tetrahydro-2H-pyran-4-yl carbamate::(3R,4S,5R,6R)-5-hydroxy-6-(4-hydroxy-3-(4-hydroxy-3-(3-methylbut-2-enyl)benzamido)-8-methyl-2-oxo-2H-chromen-7-yloxy)-3-methoxy-2,2-dimethyl-tetrahydro-2H-pyran-4-yl carbamate::CHEMBL36506::Carbamic acid (3R,4S,5R,6R)-5-hydroxy-6-{4-hydroxy-3-[4-hydroxy-3-(3-methyl-but-2-enyl)-benzoylamino]-8-methyl-2-oxo-2H-chromen-7-yloxy}-3-methoxy-2,2-dimethyl-tetrahydro-pyran-4-yl ester::Carbamic acid (3R,4S,5R,6R)-5-hydroxy-6-{4-hydroxy-3-[4-hydroxy-3-(4-methyl-pent-3-enyl)-benzoylamino]-8-methyl-2-oxo-2H-chromen-7-yloxy}-3-methoxy-2,2-dimethyl-tetrahydro-pyran-4-yl ester::Carbamic acid 5-hydroxy-6-{4-hydroxy-3-[4-hydroxy-3-(3-methyl-but-2-enyl)-benzoylamino]-8-methyl-2-oxo-2H-chromen-7-yloxy}-3-methoxy-2,2-dimethyl-tetrahydro-pyran-4-yl ester::Carbamic acid 5-hydroxy-6-{4-hydroxy-3-[4-hydroxy-3-(3-methyl-but-2-enyl)-benzoylamino]-8-methyl-2-oxo-2H-chromen-7-yloxy}-3-methoxy-2,2-dimethyl-tetrahydro-pyran-4-yl ester(Novobiocin)::NOVOBIOCIN

> <Target Name Assigned by Curator or DataSource>
DNA Gyrase Subunit B

> <Target Source Organism According to Curator or DataSource>
Escherichia coli

> <Ki (nM)>


> <IC50 (nM)>


> <Kd (nM)>
 7.0

> <EC50 (nM)>


> <kon (M-1-s-1)>


> <koff (s-1)>


> <pH>


> <Temp C>


> <Curation/DataSource>
ChEMBL

> <Article DOI>
10.1016/j.ejmech.2016.08.034

> <PMID>
27569197

> <PubChem AID>


> <Patent Number>


> <Authors>
Chaudhari, K; Surana, S; Jain, P; Patel, HM

> <Institution>
R. C. Patel Institute of Pharmaceutical Education and Research

> <Link to Ligand in BindingDB>
http://www.bindingdb.org/bind/chemsearch/marvin/MolStructure.jsp?monomerid=50226181

> <Link to Ligand-Target Pair in BindingDB>
http://www.bindingdb.org/jsp/dbsearch/PrimarySearch_ki.jsp?energyterm=kJ/mole&tag=pol&polymerid=2630&target=DNA+Gyrase+Subunit+B&column=ki&startPg=0&Increment=50&submit=Search

> <Link to Ligand-Target Pair in BindingDB>
http://www.bindingdb.org/jsp/dbsearch/PrimarySearch_ki.jsp?energyterm=kJ/mole&tag=r21&monomerid=50226181&enzyme=DNA+Gyrase+Subunit+B&column=ki&startPg=0&Increment=50&submit=Search

> <Ligand HET ID in PDB>
NOV

> <PDB ID(s) for Ligand-Target Complex>
1AJ6,1KIJ,1S14,3LPS,4URN,4URO

> <PubChem CID>
54675769

> <PubChem SID>
104097057

> <ChEBI ID of Ligand>
28368

> <ChEMBL ID of Ligand>
CHEMBL36506

> <DrugBank ID of Ligand>
DB01051

> <IUPHAR_GRAC ID of Ligand>


> <KEGG ID of Ligand>
C05080

> <ZINC ID of Ligand>
ZINC14879999

> <Number of Protein Chains in Target (>1 implies a multichain complex)>
1

> <BindingDB Target Chain Sequence>
MSNSYDSSSIKVLKGLDAVRKRPGMYIGDTDDGTGLHHMVFEVVDNAIDEALAGHCKEII
VTIHADNSVSVQDDGRGIPTGIHPEEGVSAAEVIMTVLHAGGKFDDNSYKVSGGLHGVGV
SVVNALSQKLELVIQREGKIHRQIYEHGVPQAPLAVTGETEKTGTMVRFWPSLETFTNVT
EFEYEILAKRLRELSFLNSGVSIRLRDKRDGKEDHFHYEGGIKAFVEYLNKNKTPIHPNI
FYFSTEKDGIGVEVALQWNDGFQENIYCFTNNIPQRDGGTHLAGFRAAMTRTLNAYMDKE
GYSKKAKVSATGDDAREGLIAVVSVKVPDPKFSSQTKDKLVSSEVKSAVEQQMNELLAEY
LLENPTDAKIVVGKIIDAARAREAARRAREMTRRKGALDLAGLPGKLADCQERDPALSEL
YLVEGDSAGGSAKQGRNRKNQAILPLKGKILNVEKARFDKMLSSQEVATLITALGCGIGR
DEYNPDKLRYHSIIIMTDADVDGSHIRTLLLTFFYRQMPEIVERGHVYIAQPPLYKVKKG
KQEQYIKDDEAMDQYQISIALDGATLHTNASAPALAGEALEKLVSEYNATQKMINRMERR
YPKAMLKELIYQPTLTEADLSDEQTVTRWVNALVSELNDKEQHGSQWKFDVHTNAEQNLF
EPIVRVRTHGVDTDYPLDHEFITGGEYRRICTLGEKLRGLLEEDAFIERGERRQPVASFE
QALDWLVKESRRGLSIQRYKGLGEMNPEQLWETTMDPESRRMLRVTVKDAIAADQLFTTL
MGDAVEPRRAFIEENALKAANIDI

> <PDB ID(s) of Target Chain>
1KZN,3G7E,3NUH,4DUH,4HYP,4KFG,4PRV,4PRX,4PU9,4WUB,4WUC,4WUD,4XTJ,4ZVI,5L3J,5MMN,5MMO,5MMP,5Z4H,5Z4O,5Z9B,5Z9E,5Z9F,5Z9L,5Z9M,5Z9N,5Z9Q,6ENG,6F86,6F8J,6F94,6F96

> <UniProt (SwissProt) Recommended Name of Target Chain>
DNA gyrase subunit B

> <UniProt (SwissProt) Entry Name of Target Chain>
GYRB_ECOLI

> <UniProt (SwissProt) Primary ID of Target Chain>
P0AES6

> <UniProt (SwissProt) Secondary ID(s) of Target Chain>
O08438,P06982,Q2M811

> <UniProt (SwissProt) Alternative ID(s) of Target Chain>


> <UniProt (TrEMBL) Submitted Name of Target Chain>


> <UniProt (TrEMBL) Entry Name of Target Chain>


> <UniProt (TrEMBL) Primary ID of Target Chain>


> <UniProt (TrEMBL) Secondary ID(s) of Target Chain>


> <UniProt (TrEMBL) Alternative ID(s) of Target Chain>


$$$$

  Mrv0541 11231413392D          

 49 53  0  0  0  0            999 V2000
   -4.4696   -1.4645    0.0000 C   0  0  0  0  0  0  0  0  0  0  0  0
   -3.5709   -1.2715    0.0000 C   0  0  0  0  0  0  0  0  0  0  0  0
   -2.5103   -1.2715    0.0000 C   0  0  0  0  0  0  0  0  0  0  0  0
   -3.7551   -0.2270    0.0000 C   0  0  2  0  0  0  0  0  0  0  0  0
   -3.7551    0.5980    0.0000 C   0  0  2  0  0  0  0  0  0  0  0  0
   -3.0406    1.0105    0.0000 C   0  0  2  0  0  0  0  0  0  0  0  0
   -2.3262    0.5980    0.0000 C   0  0  1  0  0  0  0  0  0  0  0  0
   -3.0406   -0.6395    0.0000 C   0  0  0  0  0  0  0  0  0  0  0  0
   -0.1827    1.8355    0.0000 Cl  0  0  0  0  0  0  0  0  0  0  0  0
   -0.8972    0.5980    0.0000 C   0  0  0  0  0  0  0  0  0  0  0  0
   -0.1827    1.0105    0.0000 C   0  0  0  0  0  0  0  0  0  0  0  0
    0.5317    0.5980    0.0000 C   0  0  0  0  0  0  0  0  0  0  0  0
    1.9607    0.5980    0.0000 C   0  0  0  0  0  0  0  0  0  0  0  0
    1.9607   -0.2270    0.0000 C   0  0  0  0  0  0  0  0  0  0  0  0
    1.2462   -0.6395    0.0000 C   0  0  0  0  0  0  0  0  0  0  0  0
    0.5317   -0.2270    0.0000 C   0  0  0  0  0  0  0  0  0  0  0  0
   -0.1827   -0.6395    0.0000 C   0  0  0  0  0  0  0  0  0  0  0  0
   -0.8972   -0.2270    0.0000 C   0  0  0  0  0  0  0  0  0  0  0  0
    3.3896   -0.2270    0.0000 C   0  0  0  0  0  0  0  0  0  0  0  0
    4.1041   -0.6395    0.0000 C   0  0  0  0  0  0  0  0  0  0  0  0
    4.8185   -0.2270    0.0000 C   0  0  0  0  0  0  0  0  0  0  0  0
    5.5330   -0.6395    0.0000 C   0  0  0  0  0  0  0  0  0  0  0  0
    5.5330   -1.4645    0.0000 C   0  0  0  0  0  0  0  0  0  0  0  0
    4.8185   -1.8770    0.0000 C   0  0  0  0  0  0  0  0  0  0  0  0
    4.1041   -1.4645    0.0000 C   0  0  0  0  0  0  0  0  0  0  0  0
    6.2475   -0.2270    0.0000 C   0  0  0  0  0  0  0  0  0  0  0  0
    6.9620   -0.6395    0.0000 C   0  0  0  0  0  0  0  0  0  0  0  0
    7.6764   -0.2270    0.0000 C   0  0  0  0  0  0  0  0  0  0  0  0
    8.3909   -0.6395    0.0000 C   0  0  0  0  0  0  0  0  0  0  0  0
    7.6764    0.5980    0.0000 C   0  0  0  0  0  0  0  0  0  0  0  0
    2.6751   -0.6395    0.0000 N   0  0  0  0  0  0  0  0  0  0  0  0
   -4.4696   -0.6395    0.0000 O   0  0  0  0  0  0  0  0  0  0  0  0
   -4.4696    1.0105    0.0000 O   0  0  0  0  0  0  0  0  0  0  0  0
   -2.3262   -0.2270    0.0000 O   0  0  0  0  0  0  0  0  0  0  0  0
   -1.6117    1.0105    0.0000 O   0  0  0  0  0  0  0  0  0  0  0  0
    1.2462   -1.4645    0.0000 O   0  0  0  0  0  0  0  0  0  0  0  0
    1.2462    1.0105    0.0000 O   0  0  0  0  0  0  0  0  0  0  0  0
    2.6751    1.0105    0.0000 O   0  0  0  0  0  0  0  0  0  0  0  0
    3.3896    0.5980    0.0000 O   0  0  0  0  0  0  0  0  0  0  0  0
    6.2475   -1.8770    0.0000 O   0  0  0  0  0  0  0  0  0  0  0  0
   -6.7917    2.0025    0.0000 C   0  0  0  0  0  0  0  0  0  0  0  0
   -5.9848    1.8310    0.0000 C   0  0  0  0  0  0  0  0  0  0  0  0
   -5.8985    1.0105    0.0000 C   0  0  0  0  0  0  0  0  0  0  0  0
   -6.6522    0.6749    0.0000 N   0  0  0  0  0  0  0  0  0  0  0  0
   -7.2042    1.2880    0.0000 C   0  0  0  0  0  0  0  0  0  0  0  0
   -8.0247    1.2018    0.0000 C   0  0  0  0  0  0  0  0  0  0  0  0
   -5.1840    0.5980    0.0000 C   0  0  0  0  0  0  0  0  0  0  0  0
   -5.1840   -0.2270    0.0000 O   0  0  0  0  0  0  0  0  0  0  0  0
   -3.0406    1.8355    0.0000 O   0  0  0  0  0  0  0  0  0  0  0  0
  1 32  1  0  0  0  0
  8  2  1  0  0  0  0
  3  8  1  0  0  0  0
  5  4  1  0  0  0  0
  4  8  1  0  0  0  0
  4 32  1  6  0  0  0
  5  6  1  0  0  0  0
  5 33  1  1  0  0  0
  6  7  1  0  0  0  0
  6 49  1  1  0  0  0
  7 34  1  0  0  0  0
  7 35  1  6  0  0  0
  8 34  1  0  0  0  0
 11  9  1  0  0  0  0
 10 11  1  0  0  0  0
 10 18  2  0  0  0  0
 10 35  1  0  0  0  0
 11 12  2  0  0  0  0
 16 12  1  0  0  0  0
 12 37  1  0  0  0  0
 13 14  1  0  0  0  0
 13 37  1  0  0  0  0
 13 38  2  0  0  0  0
 14 15  2  0  0  0  0
 14 31  1  0  0  0  0
 16 15  1  0  0  0  0
 15 36  1  0  0  0  0
 16 17  2  0  0  0  0
 17 18  1  0  0  0  0
 19 20  1  0  0  0  0
 19 31  1  0  0  0  0
 19 39  2  0  0  0  0
 20 21  2  0  0  0  0
 20 25  1  0  0  0  0
 21 22  1  0  0  0  0
 22 23  2  0  0  0  0
 22 26  1  0  0  0  0
 23 24  1  0  0  0  0
 23 40  1  0  0  0  0
 24 25  2  0  0  0  0
 26 27  1  0  0  0  0
 27 28  2  0  0  0  0
 28 29  1  0  0  0  0
 28 30  1  0  0  0  0
 47 33  1  0  0  0  0
 41 42  1  0  0  0  0
 41 45  2  0  0  0  0
 42 43  2  0  0  0  0
 43 44  1  0  0  0  0
 47 43  1  0  0  0  0
 45 44  1  0  0  0  0
 45 46  1  0  0  0  0
 47 48  2  0  0  0  0
M  END
> <From> 
www.bindingDB.org

> <BindingDB Reactant_set_id>
50976153

> <Ligand InChI>
InChI=1S/C35H37ClN2O11/c1-16(2)7-9-18-15-19(10-13-22(18)39)31(42)38-25-26(40)20-11-14-23(24(36)28(20)47-33(25)44)46-34-27(41)29(30(45-6)35(4,5)49-34)48-32(43)21-12-8-17(3)37-21/h7-8,10-15,27,29-30,34,37,39-41H,9H2,1-6H3,(H,38,42)/t27-,29+,30-,34-/m1/s1

> <Ligand InChI Key>
FJAQNRBDVKIIKK-LFLQOBSNSA-N

> <BindingDB MonomerID>
50330317

> <BindingDB Ligand Name>
5-Methyl-1H-pyrrole-2-carboxylic acid (3R,4S,5R,6S)-6-{8-chloro-4-hydroxy-3-[4-hydroxy-3-(3-methyl-but-2-enyl)-benzoylamino]-2-oxo-2H-chromen-7-yloxy}-5-hydroxy-3-methoxy-2,2-dimethyl-tetrahydro-pyran-4-yl ester::5-Methyl-1H-pyrrole-2-carboxylic acid (3R,4S,5R,6S)-6-{8-chloro-4-hydroxy-3-[4-hydroxy-3-(4-methyl-pent-3-enyl)-benzoylamino]-2-oxo-2H-chromen-7-yloxy}-5-hydroxy-3-methoxy-2,2-dimethyl-tetrahydro-pyran-4-yl ester::CHEMBL303984::Clorobiocin

> <Target Name Assigned by Curator or DataSource>
DNA gyrase subunit B

> <Target Source Organism According to Curator or DataSource>
Escherichia coli

> <Ki (nM)>


> <IC50 (nM)>


> <Kd (nM)>
 1.2

> <EC50 (nM)>


> <kon (M-1-s-1)>


> <koff (s-1)>


> <pH>


> <Temp C>


> <Curation/DataSource>
ChEMBL

> <Article DOI>
10.1021/jm101121s

> <PMID>
21235241

> <PubChem AID>


> <Patent Number>


> <Authors>
Skedelj, V; Tomasic, T; Masic, LP; Zega, A

> <Institution>
University of Ljubljana

> <Link to Ligand in BindingDB>
http://www.bindingdb.org/bind/chemsearch/marvin/MolStructure.jsp?monomerid=50330317

> <Link to Ligand-Target Pair in BindingDB>
http://www.bindingdb.org/jsp/dbsearch/PrimarySearch_ki.jsp?energyterm=kJ/mole&tag=pol&polymerid=50004611&target=DNA+gyrase+subunit+B&column=ki&startPg=0&Increment=50&submit=Search

> <Link to Ligand-Target Pair in BindingDB>
http://www.bindingdb.org/jsp/dbsearch/PrimarySearch_ki.jsp?energyterm=kJ/mole&tag=r21&monomerid=50330317&enzyme=DNA+gyrase+subunit+B&column=ki&startPg=0&Increment=50&submit=Search

> <Ligand HET ID in PDB>
CBN

> <PDB ID(s) for Ligand-Target Complex>
1KZN

> <PubChem CID>
54706138

> <PubChem SID>
123109432

> <ChEBI ID of Ligand>


> <ChEMBL ID of Ligand>
CHEMBL303984

> <DrugBank ID of Ligand>


> <IUPHAR_GRAC ID of Ligand>


> <KEGG ID of Ligand>
C12032

> <ZINC ID of Ligand>
ZINC04102306

> <Number of Protein Chains in Target (>1 implies a multichain complex)>
1

> <BindingDB Target Chain Sequence>
MSNSYDSSSIKVLKGLDAVRKRPGMYIGDTDDGTGLHHMVFEVVDNAIDEALAGHCKEIIVTIHADNSVSVQDDGRGIPTGIHPEEGVSAAEVIMTVLHAGGKFDDNSYKVSGGLHGVGVSVVNALSQKLELVIQREGKIHRQIYEHGVPQAPLAVTGETEKTGTMVRFWPSLETFTNVTEFEYEILAKRLRELSFLNSGVSIRLRDKRDGKEDHFHYEGGIKAFVEYLNKNKTPIHPNIFYFSTEKDGIGVEVALQWNDGFQENIYCFTNNIPQRDGGTHLAGFRAAMTRTLNAYMDKEGYSKKAKVSATGDDAREGLIAVVSVKVPDPKFSSQTKDKLVSSEVKSAVEQQMNELLAEYLLENPTDAKIVVGKIIDAARAREAARRAREMTRRKGALDLAGLPGKLADCQERDPALSELYLVEGDSAGGSAKQGRNRKNQAILPLKGKILNVEKARFDKMLSSQEVATLITALGCGIGRDEYNPDKLRYHSIIIMTDADVDGSHIRTLLLTFFYRQMPEIVERGHVYIAQPPLYKVKKGKQEQYIKDDEAMDQYQISIALDGATLHTNASAPALAGEVLEKLVSEYNATQKMINRMERRYPKAMLKELIYQPTLTEADLSDEQTVTRWVNALVSELNDKEQHGSQWKFDVHTNAEQNLFEPIVRVRTHGVDTDYPLDHEFITGGEYRRICTLGEKLRGLLEEDAFIERGERRQPVASFEQALDWLVKESRRGLSIQRYKGLGEMNPEQLWETTMDPESRRMLRVTVKDAIAADQLFTTLMGDAVEPRRAFIEENALKAANIDI

> <PDB ID(s) of Target Chain>
1KZN,3G7E,4HYP,4KFG,4PRV,4PRX,4PU9,4WUB,4WUC,4WUD,4XTJ,4ZVI,5L3J,5MMN,5MMO,5MMP,6F86,6F8J,6F94,6F96

> <UniProt (SwissProt) Recommended Name of Target Chain>


> <UniProt (SwissProt) Entry Name of Target Chain>


> <UniProt (SwissProt) Primary ID of Target Chain>


> <UniProt (SwissProt) Secondary ID(s) of Target Chain


> <UniProt (SwissProt) Alternative ID(s) of Target Chain>


> <UniProt (TrEMBL) Submitted Name of Target Chain>


> <UniProt (TrEMBL) Entry Name of Target Chain>


> <UniProt (TrEMBL) Primary ID of Target Chain>


> <UniProt (TrEMBL) Secondary ID(s) of Target Chain>


> <UniProt (TrEMBL) Alternative ID(s) of Target Chain>


$$$$

  SciTegic12211703312D

 25 27  0  0  0  0            999 V2000
   10.7364  -11.1414    0.0000 O   0  0
   10.3278  -10.4323    0.0000 C   0  0
    9.5106  -10.4323    0.0000 C   0  0
    9.0305   -9.7732    0.0000 C   0  0
    8.2533  -10.0237    0.0000 C   0  0
    7.5900   -9.5436    0.0000 Br  0  0
    8.2533  -10.8409    0.0000 C   0  0
    7.5900  -11.3210    0.0000 Br  0  0
    9.0305  -11.0914    0.0000 N   0  0
   10.7364   -9.7232    0.0000 N   0  0
   11.5536   -9.7232    0.0000 C   0  0
   12.0338  -10.3865    0.0000 N   0  0
   12.8110  -10.1318    0.0000 C   0  0
   13.5201  -10.5404    0.0000 C   0  0
   14.2250  -10.1318    0.0000 C   0  0
   14.2250   -9.3146    0.0000 C   0  0
   14.9341   -8.9060    0.0000 N   0  0
   15.6432   -9.3146    0.0000 C   0  0
   15.6432  -10.1318    0.0000 C   0  0
   14.9341  -10.5404    0.0000 O   0  0
   16.3482  -10.5404    0.0000 O   0  0
   16.3482   -8.9060    0.0000 O   0  0
   13.5201   -8.9060    0.0000 C   0  0
   12.8110   -9.3146    0.0000 C   0  0
   12.0338   -9.0641    0.0000 S   0  0
  1  2  2  0
  2  3  1  0
  3  4  2  0
  4  5  1  0
  5  6  1  0
  5  7  2  0
  7  8  1  0
  7  9  1  0
  3  9  1  0
  2 10  1  0
 10 11  1  0
 11 12  2  0
 12 13  1  0
 13 14  2  0
 14 15  1  0
 15 16  2  0
 16 17  1  0
 17 18  1  0
 18 19  1  0
 19 20  1  0
 19 21  2  0
 18 22  2  0
 16 23  1  0
 23 24  2  0
 13 24  1  0
 24 25  1  0
 11 25  1  0
M  END
> <From> 
www.bindingDB.org

> <BindingDB Reactant_set_id>
50524141

> <Ligand InChI>
InChI=1S/C14H8Br2N4O4S/c15-6-4-8(18-10(6)16)11(21)20-14-19-7-2-1-5(3-9(7)25-14)17-12(22)13(23)24/h1-4,18H,(H,17,22)(H,23,24)(H,19,20,21)

> <Ligand InChI Key>
ZDVZBRWEKLWNNU-UHFFFAOYSA-N

> <BindingDB MonomerID>
50198240

> <BindingDB Ligand Name>
CHEMBL3908487

> <Target Name Assigned by Curator or DataSource>
DNA Gyrase Subunit B

> <Target Source Organism According to Curator or DataSource>
Escherichia coli

> <Ki (nM)>


> <IC50 (nM)>


> <Kd (nM)>
 230

> <EC50 (nM)>


> <kon (M-1-s-1)>


> <koff (s-1)>


> <pH>


> <Temp C>


> <Curation/DataSource>
ChEMBL

> <Article DOI>
10.1021/acs.jmedchem.6b00864

> <PMID>
27541007

> <PubChem AID>


> <Patent Number>


> <Authors>
Gjorgjieva, M; Tomaic, T; Barancokova, M; Katsamakas, S; Ila, J; Tammela, P; Peterlin Maic, L; Kikelj, D

> <Institution>
University of Ljubljana

> <Link to Ligand in BindingDB>
http://www.bindingdb.org/bind/chemsearch/marvin/MolStructure.jsp?monomerid=50198240

> <Link to Ligand-Target Pair in BindingDB>
http://www.bindingdb.org/jsp/dbsearch/PrimarySearch_ki.jsp?energyterm=kJ/mole&tag=pol&polymerid=2630&target=DNA+Gyrase+Subunit+B&column=ki&startPg=0&Increment=50&submit=Search

> <Link to Ligand-Target Pair in BindingDB>
http://www.bindingdb.org/jsp/dbsearch/PrimarySearch_ki.jsp?energyterm=kJ/mole&tag=r21&monomerid=50198240&enzyme=DNA+Gyrase+Subunit+B&column=ki&startPg=0&Increment=50&submit=Search

> <Ligand HET ID in PDB>
6G9

> <PDB ID(s) for Ligand-Target Complex>
5L3J

> <PubChem CID>
121499169

> <PubChem SID>
375978192

> <ChEBI ID of Ligand>


> <ChEMBL ID of Ligand>


> <DrugBank ID of Ligand>


> <IUPHAR_GRAC ID of Ligand>


> <KEGG ID of Ligand>


> <ZINC ID of Ligand>


> <Number of Protein Chains in Target (>1 implies a multichain complex)>
1

> <BindingDB Target Chain Sequence>
MSNSYDSSSIKVLKGLDAVRKRPGMYIGDTDDGTGLHHMVFEVVDNAIDEALAGHCKEII
VTIHADNSVSVQDDGRGIPTGIHPEEGVSAAEVIMTVLHAGGKFDDNSYKVSGGLHGVGV
SVVNALSQKLELVIQREGKIHRQIYEHGVPQAPLAVTGETEKTGTMVRFWPSLETFTNVT
EFEYEILAKRLRELSFLNSGVSIRLRDKRDGKEDHFHYEGGIKAFVEYLNKNKTPIHPNI
FYFSTEKDGIGVEVALQWNDGFQENIYCFTNNIPQRDGGTHLAGFRAAMTRTLNAYMDKE
GYSKKAKVSATGDDAREGLIAVVSVKVPDPKFSSQTKDKLVSSEVKSAVEQQMNELLAEY
LLENPTDAKIVVGKIIDAARAREAARRAREMTRRKGALDLAGLPGKLADCQERDPALSEL
YLVEGDSAGGSAKQGRNRKNQAILPLKGKILNVEKARFDKMLSSQEVATLITALGCGIGR
DEYNPDKLRYHSIIIMTDADVDGSHIRTLLLTFFYRQMPEIVERGHVYIAQPPLYKVKKG
KQEQYIKDDEAMDQYQISIALDGATLHTNASAPALAGEALEKLVSEYNATQKMINRMERR
YPKAMLKELIYQPTLTEADLSDEQTVTRWVNALVSELNDKEQHGSQWKFDVHTNAEQNLF
EPIVRVRTHGVDTDYPLDHEFITGGEYRRICTLGEKLRGLLEEDAFIERGERRQPVASFE
QALDWLVKESRRGLSIQRYKGLGEMNPEQLWETTMDPESRRMLRVTVKDAIAADQLFTTL
MGDAVEPRRAFIEENALKAANIDI

> <PDB ID(s) of Target Chain>
1KZN,3G7E,3NUH,4DUH,4HYP,4KFG,4PRV,4PRX,4PU9,4WUB,4WUC,4WUD,4XTJ,4ZVI,5L3J,5MMN,5MMO,5MMP,5Z4H,5Z4O,5Z9B,5Z9E,5Z9F,5Z9L,5Z9M,5Z9N,5Z9Q,6ENG,6F86,6F8J,6F94,6F96

> <UniProt (SwissProt) Recommended Name of Target Chain>
DNA gyrase subunit B

> <UniProt (SwissProt) Entry Name of Target Chain>
GYRB_ECOLI

> <UniProt (SwissProt) Primary ID of Target Chain>
P0AES6

> <UniProt (SwissProt) Secondary ID(s) of Target Chain>
O08438,P06982,Q2M811

> <UniProt (SwissProt) Alternative ID(s) of Target Chain>


> <UniProt (TrEMBL) Submitted Name of Target Chain>


> <UniProt (TrEMBL) Entry Name of Target Chain>


> <UniProt (TrEMBL) Primary ID of Target Chain>


> <UniProt (TrEMBL) Secondary ID(s) of Target Chain>


> <UniProt (TrEMBL) Alternative ID(s) of Target Chain>


$$$$

  Mrv0541 11241415502D          

 44 47  0  0  1  0            999 V2000
   10.7542   -7.9589    0.0000 C   0  0  0  0  0  0  0  0  0  0  0  0
   10.0397   -7.5464    0.0000 O   0  0  0  0  0  0  0  0  0  0  0  0
   10.0397   -6.7214    0.0000 C   0  0  2  0  0  0  0  0  0  0  0  0
    9.3253   -6.3089    0.0000 C   0  0  1  0  0  0  0  0  0  0  0  0
    8.6108   -6.7214    0.0000 O   0  0  0  0  0  0  0  0  0  0  0  0
    8.6108   -7.5464    0.0000 C   0  0  0  0  0  0  0  0  0  0  0  0
    9.3253   -7.9589    0.0000 O   0  0  0  0  0  0  0  0  0  0  0  0
    7.8963   -7.9589    0.0000 N   0  0  0  0  0  0  0  0  0  0  0  0
    9.3253   -5.4839    0.0000 C   0  0  2  0  0  0  0  0  0  0  0  0
    8.6108   -5.0714    0.0000 O   0  0  0  0  0  0  0  0  0  0  0  0
   10.0397   -5.0714    0.0000 C   0  0  1  0  0  0  0  0  0  0  0  0
   10.0397   -4.2464    0.0000 O   0  0  0  0  0  0  0  0  0  0  0  0
   10.7542   -3.8339    0.0000 C   0  0  0  0  0  0  0  0  0  0  0  0
   10.7542   -3.0089    0.0000 C   0  0  0  0  0  0  0  0  0  0  0  0
   11.4687   -2.5964    0.0000 C   0  0  0  0  0  0  0  0  0  0  0  0
   12.1831   -3.0089    0.0000 C   0  0  0  0  0  0  0  0  0  0  0  0
   12.8976   -2.5964    0.0000 C   0  0  0  0  0  0  0  0  0  0  0  0
   13.6121   -3.0089    0.0000 C   0  0  0  0  0  0  0  0  0  0  0  0
   14.3266   -2.5964    0.0000 N   0  0  0  0  0  0  0  0  0  0  0  0
   15.0410   -3.0089    0.0000 C   0  0  0  0  0  0  0  0  0  0  0  0
   15.0410   -3.8339    0.0000 O   0  0  0  0  0  0  0  0  0  0  0  0
   15.7555   -2.5964    0.0000 C   0  0  0  0  0  0  0  0  0  0  0  0
   15.7555   -1.7714    0.0000 C   0  0  0  0  0  0  0  0  0  0  0  0
   16.4700   -1.3589    0.0000 C   0  0  0  0  0  0  0  0  0  0  0  0
   17.1844   -1.7714    0.0000 C   0  0  0  0  0  0  0  0  0  0  0  0
   17.8989   -1.3589    0.0000 O   0  0  0  0  0  0  0  0  0  0  0  0
   17.1844   -2.5964    0.0000 C   0  0  0  0  0  0  0  0  0  0  0  0
   17.8989   -3.0089    0.0000 C   0  0  0  0  0  0  0  0  0  0  0  0
   18.6134   -2.5964    0.0000 C   0  0  0  0  0  0  0  0  0  0  0  0
   19.3279   -3.0089    0.0000 C   0  0  0  0  0  0  0  0  0  0  0  0
   20.0423   -2.5964    0.0000 C   0  0  0  0  0  0  0  0  0  0  0  0
   19.3279   -3.8339    0.0000 C   0  0  0  0  0  0  0  0  0  0  0  0
   16.4700   -3.0089    0.0000 C   0  0  0  0  0  0  0  0  0  0  0  0
   13.6121   -3.8339    0.0000 C   0  0  0  0  0  0  0  0  0  0  0  0
   14.3266   -4.2464    0.0000 O   0  0  0  0  0  0  0  0  0  0  0  0
   12.8976   -4.2464    0.0000 O   0  0  0  0  0  0  0  0  0  0  0  0
   12.1831   -3.8339    0.0000 C   0  0  0  0  0  0  0  0  0  0  0  0
   11.4687   -4.2464    0.0000 C   0  0  0  0  0  0  0  0  0  0  0  0
   11.4687   -5.0714    0.0000 C   0  0  0  0  0  0  0  0  0  0  0  0
   12.8976   -1.7714    0.0000 O   0  0  0  0  0  0  0  0  0  0  0  0
   10.7542   -5.4839    0.0000 O   0  0  0  0  0  0  0  0  0  0  0  0
   10.7542   -6.3089    0.0000 C   0  0  0  0  0  0  0  0  0  0  0  0
   11.5787   -6.3377    0.0000 C   0  0  0  0  0  0  0  0  0  0  0  0
   11.1914   -7.0085    0.0000 C   0  0  0  0  0  0  0  0  0  0  0  0
  1  2  1  0  0  0  0
  3  2  1  6  0  0  0
  4  3  1  0  0  0  0
  4  5  1  1  0  0  0
  5  6  1  0  0  0  0
  6  7  2  0  0  0  0
  6  8  1  0  0  0  0
  4  9  1  0  0  0  0
  9 10  1  6  0  0  0
  9 11  1  0  0  0  0
 11 12  1  1  0  0  0
 12 13  1  0  0  0  0
 13 14  2  0  0  0  0
 14 15  1  0  0  0  0
 15 16  2  0  0  0  0
 16 17  1  0  0  0  0
 17 18  2  0  0  0  0
 18 19  1  0  0  0  0
 19 20  1  0  0  0  0
 20 21  2  0  0  0  0
 20 22  1  0  0  0  0
 22 23  2  0  0  0  0
 23 24  1  0  0  0  0
 24 25  2  0  0  0  0
 25 26  1  0  0  0  0
 25 27  1  0  0  0  0
 27 28  1  0  0  0  0
 28 29  1  0  0  0  0
 29 30  2  0  0  0  0
 30 31  1  0  0  0  0
 30 32  1  0  0  0  0
 27 33  2  0  0  0  0
 22 33  1  0  0  0  0
 18 34  1  0  0  0  0
 34 35  2  0  0  0  0
 34 36  1  0  0  0  0
 36 37  1  0  0  0  0
 16 37  1  0  0  0  0
 37 38  2  0  0  0  0
 13 38  1  0  0  0  0
 38 39  1  0  0  0  0
 17 40  1  0  0  0  0
 11 41  1  0  0  0  0
 41 42  1  0  0  0  0
  3 42  1  0  0  0  0
 42 43  1  0  0  0  0
 42 44  1  0  0  0  0
M  END
> <From> 
www.bindingDB.org

> <BindingDB Reactant_set_id>
51038871

> <Ligand InChI>
InChI=1S/C31H36N2O11/c1-14(2)7-8-16-13-17(9-11-19(16)34)27(37)33-21-22(35)18-10-12-20(15(3)24(18)42-28(21)38)41-29-23(36)25(43-30(32)39)26(40-6)31(4,5)44-29/h7,9-13,23,25-26,29,34-36H,8H2,1-6H3,(H2,32,39)(H,33,37)/t23-,25-,26+,29-/m0/s1

> <Ligand InChI Key>
YJQPYGGHQPGBLI-FWPHEPGVSA-N

> <BindingDB MonomerID>
50423645

> <BindingDB Ligand Name>
Albamycin::Cathomycin::NOVOBIOCIN

> <Target Name Assigned by Curator or DataSource>
DNA gyrase subunit B

> <Target Source Organism According to Curator or DataSource>
Escherichia coli

> <Ki (nM)>


> <IC50 (nM)>


> <Kd (nM)>
 28

> <EC50 (nM)>


> <kon (M-1-s-1)>


> <koff (s-1)>


> <pH>


> <Temp C>


> <Curation/DataSource>
ChEMBL

> <Article DOI>
10.1021/jm101121s

> <PMID>
21235241

> <PubChem AID>


> <Patent Number>


> <Authors>
Skedelj, V; Tomasic, T; Masic, LP; Zega, A

> <Institution>
University of Ljubljana

> <Link to Ligand in BindingDB>
http://www.bindingdb.org/bind/chemsearch/marvin/MolStructure.jsp?monomerid=50423645

> <Link to Ligand-Target Pair in BindingDB>
http://www.bindingdb.org/jsp/dbsearch/PrimarySearch_ki.jsp?energyterm=kJ/mole&tag=pol&polymerid=50004611&target=DNA+gyrase+subunit+B&column=ki&startPg=0&Increment=50&submit=Search

> <Link to Ligand-Target Pair in BindingDB>
http://www.bindingdb.org/jsp/dbsearch/PrimarySearch_ki.jsp?energyterm=kJ/mole&tag=r21&monomerid=50423645&enzyme=DNA+gyrase+subunit+B&column=ki&startPg=0&Increment=50&submit=Search

> <Ligand HET ID in PDB>


> <PDB ID(s) for Ligand-Target Complex>


> <PubChem CID>
71719647

> <PubChem SID>
164152520

> <ChEBI ID of Ligand>


> <ChEMBL ID of Ligand>


> <DrugBank ID of Ligand>


> <IUPHAR_GRAC ID of Ligand>


> <KEGG ID of Ligand>


> <ZINC ID of Ligand>
ZINC76945632

> <Number of Protein Chains in Target (>1 implies a multichain complex)>
1

> <BindingDB Target Chain Sequence>
MSNSYDSSSIKVLKGLDAVRKRPGMYIGDTDDGTGLHHMVFEVVDNAIDEALAGHCKEIIVTIHADNSVSVQDDGRGIPTGIHPEEGVSAAEVIMTVLHAGGKFDDNSYKVSGGLHGVGVSVVNALSQKLELVIQREGKIHRQIYEHGVPQAPLAVTGETEKTGTMVRFWPSLETFTNVTEFEYEILAKRLRELSFLNSGVSIRLRDKRDGKEDHFHYEGGIKAFVEYLNKNKTPIHPNIFYFSTEKDGIGVEVALQWNDGFQENIYCFTNNIPQRDGGTHLAGFRAAMTRTLNAYMDKEGYSKKAKVSATGDDAREGLIAVVSVKVPDPKFSSQTKDKLVSSEVKSAVEQQMNELLAEYLLENPTDAKIVVGKIIDAARAREAARRAREMTRRKGALDLAGLPGKLADCQERDPALSELYLVEGDSAGGSAKQGRNRKNQAILPLKGKILNVEKARFDKMLSSQEVATLITALGCGIGRDEYNPDKLRYHSIIIMTDADVDGSHIRTLLLTFFYRQMPEIVERGHVYIAQPPLYKVKKGKQEQYIKDDEAMDQYQISIALDGATLHTNASAPALAGEVLEKLVSEYNATQKMINRMERRYPKAMLKELIYQPTLTEADLSDEQTVTRWVNALVSELNDKEQHGSQWKFDVHTNAEQNLFEPIVRVRTHGVDTDYPLDHEFITGGEYRRICTLGEKLRGLLEEDAFIERGERRQPVASFEQALDWLVKESRRGLSIQRYKGLGEMNPEQLWETTMDPESRRMLRVTVKDAIAADQLFTTLMGDAVEPRRAFIEENALKAANIDI

> <PDB ID(s) of Target Chain>
1KZN,3G7E,4HYP,4KFG,4PRV,4PRX,4PU9,4WUB,4WUC,4WUD,4XTJ,4ZVI,5L3J,5MMN,5MMO,5MMP,6F86,6F8J,6F94,6F96

> <UniProt (SwissProt) Recommended Name of Target Chain>


> <UniProt (SwissProt) Entry Name of Target Chain>


> <UniProt (SwissProt) Primary ID of Target Chain>


> <UniProt (SwissProt) Secondary ID(s) of Target Chain


> <UniProt (SwissProt) Alternative ID(s) of Target Chain>


> <UniProt (TrEMBL) Submitted Name of Target Chain>


> <UniProt (TrEMBL) Entry Name of Target Chain>


> <UniProt (TrEMBL) Primary ID of Target Chain>


> <UniProt (TrEMBL) Secondary ID(s) of Target Chain>


> <UniProt (TrEMBL) Alternative ID(s) of Target Chain>


$$$$

  Mrv0541 03271611212D          

 35 37  0  0  0  0            999 V2000
    7.8336   -3.0863    0.0000 C   0  0  0  0  0  0  0  0  0  0  0  0
    7.0095   -3.1236    0.0000 C   0  0  0  0  0  0  0  0  0  0  0  0
    6.6339   -3.8534    0.0000 C   0  0  2  0  0  0  0  0  0  0  0  0
    7.0741   -4.5462    0.0000 C   0  0  2  0  0  0  0  0  0  0  0  0
    7.8983   -4.5088    0.0000 C   0  0  0  0  0  0  0  0  0  0  0  0
    8.2822   -3.7786    0.0000 N   0  0  0  0  0  0  0  0  0  0  0  0
    5.8098   -3.8909    0.0000 N   0  0  0  0  0  0  0  0  0  0  0  0
    5.3653   -3.1959    0.0000 C   0  0  0  0  0  0  0  0  0  0  0  0
    4.5412   -3.2333    0.0000 C   0  0  0  0  0  0  0  0  0  0  0  0
    5.7450   -2.4634    0.0000 O   0  0  0  0  0  0  0  0  0  0  0  0
    9.1062   -3.7412    0.0000 C   0  0  0  0  0  0  0  0  0  0  0  0
    4.0299   -2.5856    0.0000 C   0  0  0  0  0  0  0  0  0  0  0  0
    3.2576   -2.8758    0.0000 C   0  0  0  0  0  0  0  0  0  0  0  0
    3.2951   -3.7000    0.0000 C   0  0  0  0  0  0  0  0  0  0  0  0
    4.0905   -3.9189    0.0000 N   0  0  0  0  0  0  0  0  0  0  0  0
    9.6190   -4.3840    0.0000 N   0  0  0  0  0  0  0  0  0  0  0  0
   10.3912   -4.0938    0.0000 C   0  0  0  0  0  0  0  0  0  0  0  0
   10.3538   -3.2696    0.0000 C   0  0  0  0  0  0  0  0  0  0  0  0
    9.5584   -3.0507    0.0000 S   0  0  0  0  0  0  0  0  0  0  0  0
   10.9985   -2.7549    0.0000 C   0  0  0  0  0  0  0  0  0  0  0  0
   11.7665   -3.0558    0.0000 O   0  0  0  0  0  0  0  0  0  0  0  0
   10.8750   -1.9392    0.0000 O   0  0  0  0  0  0  0  0  0  0  0  0
    2.6504   -4.2147    0.0000 C   0  0  0  0  0  0  0  0  0  0  0  0
    4.2511   -1.7908    0.0000 Cl  0  0  0  0  0  0  0  0  0  0  0  0
    2.5689   -2.4216    0.0000 Cl  0  0  0  0  0  0  0  0  0  0  0  0
    6.6934   -5.2781    0.0000 O   0  0  0  0  0  0  0  0  0  0  0  0
    5.8692   -5.3143    0.0000 C   0  0  0  0  0  0  0  0  0  0  0  0
   11.0799   -4.5479    0.0000 C   0  0  0  0  0  0  0  0  0  0  0  0
   11.0310   -5.3714    0.0000 O   0  0  0  0  0  0  0  0  0  0  0  0
   11.8175   -4.1785    0.0000 N   0  0  0  0  0  0  0  0  0  0  0  0
   12.5129   -4.6370    0.0000 C   0  0  0  0  0  0  0  0  0  0  0  0
   13.2576   -4.2641    0.0000 C   0  0  1  0  0  0  0  0  0  0  0  0
   13.9528   -4.7225    0.0000 O   0  0  0  0  0  0  0  0  0  0  0  0
   14.6976   -4.3496    0.0000 C   0  0  0  0  0  0  0  0  0  0  0  0
   13.3065   -3.4405    0.0000 C   0  0  0  0  0  0  0  0  0  0  0  0
  1  2  1  0  0  0  0
  1  6  1  0  0  0  0
  3  2  1  0  0  0  0
  3  4  1  0  0  0  0
  4  5  1  0  0  0  0
  5  6  1  0  0  0  0
  3  7  1  6  0  0  0
  7  8  1  0  0  0  0
  8  9  1  0  0  0  0
  8 10  2  0  0  0  0
  6 11  1  0  0  0  0
  9 12  4  0  0  0  0
 12 13  4  0  0  0  0
 13 14  4  0  0  0  0
 14 15  4  0  0  0  0
 15  9  4  0  0  0  0
 11 16  4  0  0  0  0
 16 17  4  0  0  0  0
 17 18  4  0  0  0  0
 18 19  4  0  0  0  0
 19 11  4  0  0  0  0
 18 20  1  0  0  0  0
 20 21  1  0  0  0  0
 20 22  2  0  0  0  0
 14 23  1  0  0  0  0
 12 24  1  0  0  0  0
 13 25  1  0  0  0  0
  4 26  1  6  0  0  0
 26 27  1  0  0  0  0
 17 28  1  0  0  0  0
 28 29  2  0  0  0  0
 28 30  1  0  0  0  0
 30 31  1  0  0  0  0
 32 31  1  0  0  0  0
 32 33  1  0  0  0  0
 33 34  1  0  0  0  0
 32 35  1  6  0  0  0
M  STY  1   1 DAT
M  SAL   1  1  15
M  SDT   1 MRV_IMPLICIT_H                                        
M  SDD   1     0.0000    0.0000    DR    ALL  0       0  
M  SED   1 IMPL_H1
M  END
> <From> 
www.bindingDB.org

> <BindingDB Reactant_set_id>
50271362

> <Ligand InChI>
InChI=1S/C21H27Cl2N5O6S/c1-9(33-3)7-24-18(29)16-17(20(31)32)35-21(27-16)28-6-5-11(12(8-28)34-4)26-19(30)15-14(23)13(22)10(2)25-15/h9,11-12,25H,5-8H2,1-4H3,(H,24,29)(H,26,30)(H,31,32)/t9-,11+,12-/m0/s1

> <Ligand InChI Key>
GJPLARNFXUUBBL-WCQGTBRESA-N

> <BindingDB MonomerID>
50047214

> <BindingDB Ligand Name>
CHEMBL3314566

> <Target Name Assigned by Curator or DataSource>
DNA Gyrase Subunit B

> <Target Source Organism According to Curator or DataSource>
Staphylococcus aureus

> <Ki (nM)>


> <IC50 (nM)>
<10.0

> <Kd (nM)>


> <EC50 (nM)>


> <kon (M-1-s-1)>


> <koff (s-1)>


> <pH>


> <Temp C>


> <Curation/DataSource>
ChEMBL

> <Article DOI>
10.1021/jm500462x

> <PMID>
24959892

> <PubChem AID>


> <Patent Number>


> <Authors>
Basarab, GS; Hill, PJ; Garner, CE; Hull, K; Green, O; Sherer, BA; Dangel, PB; Manchester, JI; Bist, S; Hauck, S; Zhou, F; Uria-Nickelsen, M; Illingworth, R; Alm, R; Rooney, M; Eakin, AE

> <Institution>
AstraZeneca

> <Link to Ligand in BindingDB>
http://www.bindingdb.org/bind/chemsearch/marvin/MolStructure.jsp?monomerid=50047214

> <Link to Ligand-Target Pair in BindingDB>
http://www.bindingdb.org/jsp/dbsearch/PrimarySearch_ki.jsp?energyterm=kJ/mole&tag=pol&polymerid=2626&target=DNA+Gyrase+Subunit+B&column=ki&startPg=0&Increment=50&submit=Search

> <Link to Ligand-Target Pair in BindingDB>
http://www.bindingdb.org/jsp/dbsearch/PrimarySearch_ki.jsp?energyterm=kJ/mole&tag=r21&monomerid=50047214&enzyme=DNA+Gyrase+Subunit+B&column=ki&startPg=0&Increment=50&submit=Search

> <Ligand HET ID in PDB>


> <PDB ID(s) for Ligand-Target Complex>


> <PubChem CID>
11996136

> <PubChem SID>
313068757

> <ChEBI ID of Ligand>


> <ChEMBL ID of Ligand>


> <DrugBank ID of Ligand>


> <IUPHAR_GRAC ID of Ligand>


> <KEGG ID of Ligand>


> <ZINC ID of Ligand>


> <Number of Protein Chains in Target (>1 implies a multichain complex)>
1

> <BindingDB Target Chain Sequence>
MVTALSDVNNTDNYGAGQIQVLEGLEAVRKRPGMYIGSTSERGLHHLVWEIVDNSIDEALAGYANQIEVVIEKDNWIKVTDNGRGIPVDIQEKMGRPAVEVILTVLHAGGKFGGGGYKVSGGLHGVGSSVVNALSQDLEVYVHRNETIYHQAYKKGVPQFDLKEVGTTDKTGTVIRFKADGEIFTETTVYNYETLQQRIRELAFLNKGIQITLRDERDEENVREDSYHYEGGIKSYVELLNENKEPIHDEPIYIHQSKDDIEVEIAIQYNSGYATNLLTYANNIHTYEGGTHEDGFKRALTRVLNSYGLSSKIMKEEKDRLSGEDTREGMTAIISIKHGDPQFEGQTKTKLGNSEVRQVVDKLFSEHFERFLYENPQVARTVVEKGIMAARARVAAKKAREVTRRKSALDVASLPGKLADCSSKSPEECEIFLVEGDSAGGSTKSGRDSRTQAILPLRGKILNVEKARLDRILNNNEIRQMITAFGTGIGGDFDLAKARYHKIVIMTDADVDGAHIRTLLLTFFYRFMRPLIEAGYVYIAQPPLYKLTQGKQKYYVYNDRELDKLKSELNPTPKWSIARYKGLGEMNADQLWETTMNPEHRALLQVKLEDAIEADQTFEMLMGDVVENRRQFIEDNAVYANLDF

> <PDB ID(s) of Target Chain>


> <UniProt (SwissProt) Recommended Name of Target Chain>
DNA gyrase subunit B

> <UniProt (SwissProt) Entry Name of Target Chain>
GYRB_STAAU

> <UniProt (SwissProt) Primary ID of Target Chain>
P0A0K8

> <UniProt (SwissProt) Secondary ID(s) of Target Chain>
P20832

> <UniProt (SwissProt) Alternative ID(s) of Target Chain>


> <UniProt (TrEMBL) Submitted Name of Target Chain>


> <UniProt (TrEMBL) Entry Name of Target Chain>


> <UniProt (TrEMBL) Primary ID of Target Chain>


> <UniProt (TrEMBL) Secondary ID(s) of Target Chain>


> <UniProt (TrEMBL) Alternative ID(s) of Target Chain>


$$$$

  Mrv0541 03271611212D          

 37 39  0  0  0  0            999 V2000
    7.8336   -3.0863    0.0000 C   0  0  0  0  0  0  0  0  0  0  0  0
    7.0095   -3.1236    0.0000 C   0  0  0  0  0  0  0  0  0  0  0  0
    6.6339   -3.8534    0.0000 C   0  0  2  0  0  0  0  0  0  0  0  0
    7.0741   -4.5462    0.0000 C   0  0  2  0  0  0  0  0  0  0  0  0
    7.8983   -4.5088    0.0000 C   0  0  0  0  0  0  0  0  0  0  0  0
    8.2822   -3.7786    0.0000 N   0  0  0  0  0  0  0  0  0  0  0  0
    5.8098   -3.8909    0.0000 N   0  0  0  0  0  0  0  0  0  0  0  0
    5.3653   -3.1959    0.0000 C   0  0  0  0  0  0  0  0  0  0  0  0
    4.5412   -3.2333    0.0000 C   0  0  0  0  0  0  0  0  0  0  0  0
    5.7450   -2.4634    0.0000 O   0  0  0  0  0  0  0  0  0  0  0  0
    9.1062   -3.7412    0.0000 C   0  0  0  0  0  0  0  0  0  0  0  0
    4.0299   -2.5856    0.0000 C   0  0  0  0  0  0  0  0  0  0  0  0
    3.2576   -2.8758    0.0000 C   0  0  0  0  0  0  0  0  0  0  0  0
    3.2951   -3.7000    0.0000 C   0  0  0  0  0  0  0  0  0  0  0  0
    4.0905   -3.9189    0.0000 N   0  0  0  0  0  0  0  0  0  0  0  0
    9.6190   -4.3840    0.0000 N   0  0  0  0  0  0  0  0  0  0  0  0
   10.3912   -4.0938    0.0000 C   0  0  0  0  0  0  0  0  0  0  0  0
   10.3538   -3.2696    0.0000 C   0  0  0  0  0  0  0  0  0  0  0  0
    9.5584   -3.0507    0.0000 S   0  0  0  0  0  0  0  0  0  0  0  0
   10.9985   -2.7549    0.0000 C   0  0  0  0  0  0  0  0  0  0  0  0
   11.7665   -3.0558    0.0000 O   0  0  0  0  0  0  0  0  0  0  0  0
   10.8750   -1.9392    0.0000 O   0  0  0  0  0  0  0  0  0  0  0  0
    2.6504   -4.2147    0.0000 C   0  0  0  0  0  0  0  0  0  0  0  0
    4.2511   -1.7908    0.0000 Cl  0  0  0  0  0  0  0  0  0  0  0  0
    2.5689   -2.4216    0.0000 Cl  0  0  0  0  0  0  0  0  0  0  0  0
    6.6934   -5.2781    0.0000 O   0  0  0  0  0  0  0  0  0  0  0  0
    5.8692   -5.3143    0.0000 C   0  0  0  0  0  0  0  0  0  0  0  0
   11.0799   -4.5479    0.0000 C   0  0  0  0  0  0  0  0  0  0  0  0
   11.0310   -5.3714    0.0000 O   0  0  0  0  0  0  0  0  0  0  0  0
   11.8175   -4.1785    0.0000 N   0  0  0  0  0  0  0  0  0  0  0  0
   12.5129   -4.6370    0.0000 C   0  0  0  0  0  0  0  0  0  0  0  0
   13.2576   -4.2641    0.0000 C   0  0  0  0  0  0  0  0  0  0  0  0
   13.9528   -4.7225    0.0000 O   0  0  0  0  0  0  0  0  0  0  0  0
   14.6976   -4.3496    0.0000 C   0  0  0  0  0  0  0  0  0  0  0  0
   12.4639   -5.4606    0.0000 C   0  0  0  0  0  0  0  0  0  0  0  0
   13.1527   -5.9147    0.0000 O   0  0  0  0  0  0  0  0  0  0  0  0
   13.8903   -5.5453    0.0000 C   0  0  0  0  0  0  0  0  0  0  0  0
  1  2  1  0  0  0  0
  1  6  1  0  0  0  0
  3  2  1  0  0  0  0
  3  4  1  0  0  0  0
  4  5  1  0  0  0  0
  5  6  1  0  0  0  0
  3  7  1  6  0  0  0
  7  8  1  0  0  0  0
  8  9  1  0  0  0  0
  8 10  2  0  0  0  0
  6 11  1  0  0  0  0
  9 12  4  0  0  0  0
 12 13  4  0  0  0  0
 13 14  4  0  0  0  0
 14 15  4  0  0  0  0
 15  9  4  0  0  0  0
 11 16  4  0  0  0  0
 16 17  4  0  0  0  0
 17 18  4  0  0  0  0
 18 19  4  0  0  0  0
 19 11  4  0  0  0  0
 18 20  1  0  0  0  0
 20 21  1  0  0  0  0
 20 22  2  0  0  0  0
 14 23  1  0  0  0  0
 12 24  1  0  0  0  0
 13 25  1  0  0  0  0
  4 26  1  6  0  0  0
 26 27  1  0  0  0  0
 17 28  1  0  0  0  0
 28 29  2  0  0  0  0
 28 30  1  0  0  0  0
 30 31  1  0  0  0  0
 31 32  1  0  0  0  0
 32 33  1  0  0  0  0
 33 34  1  0  0  0  0
 31 35  1  0  0  0  0
 35 36  1  0  0  0  0
 36 37  1  0  0  0  0
M  STY  1   1 DAT
M  SAL   1  1  15
M  SDT   1 MRV_IMPLICIT_H                                        
M  SDD   1     0.0000    0.0000    DR    ALL  0       0  
M  SED   1 IMPL_H1
M  END
> <From> 
www.bindingDB.org

> <BindingDB Reactant_set_id>
50271363

> <Ligand InChI>
InChI=1S/C22H29Cl2N5O7S/c1-10-14(23)15(24)16(25-10)19(30)27-12-5-6-29(7-13(12)36-4)22-28-17(18(37-22)21(32)33)20(31)26-11(8-34-2)9-35-3/h11-13,25H,5-9H2,1-4H3,(H,26,31)(H,27,30)(H,32,33)/t12-,13+/m1/s1

> <Ligand InChI Key>
YUIMYCWGBSPTMS-OLZOCXBDSA-N

> <BindingDB MonomerID>
50047215

> <BindingDB Ligand Name>
CHEMBL3314567

> <Target Name Assigned by Curator or DataSource>
DNA Gyrase Subunit B

> <Target Source Organism According to Curator or DataSource>
Staphylococcus aureus

> <Ki (nM)>


> <IC50 (nM)>
<10.0

> <Kd (nM)>


> <EC50 (nM)>


> <kon (M-1-s-1)>


> <koff (s-1)>


> <pH>


> <Temp C>


> <Curation/DataSource>
ChEMBL

> <Article DOI>
10.1021/jm500462x

> <PMID>
24959892

> <PubChem AID>


> <Patent Number>


> <Authors>
Basarab, GS; Hill, PJ; Garner, CE; Hull, K; Green, O; Sherer, BA; Dangel, PB; Manchester, JI; Bist, S; Hauck, S; Zhou, F; Uria-Nickelsen, M; Illingworth, R; Alm, R; Rooney, M; Eakin, AE

> <Institution>
AstraZeneca

> <Link to Ligand in BindingDB>
http://www.bindingdb.org/bind/chemsearch/marvin/MolStructure.jsp?monomerid=50047215

> <Link to Ligand-Target Pair in BindingDB>
http://www.bindingdb.org/jsp/dbsearch/PrimarySearch_ki.jsp?energyterm=kJ/mole&tag=pol&polymerid=2626&target=DNA+Gyrase+Subunit+B&column=ki&startPg=0&Increment=50&submit=Search

> <Link to Ligand-Target Pair in BindingDB>
http://www.bindingdb.org/jsp/dbsearch/PrimarySearch_ki.jsp?energyterm=kJ/mole&tag=r21&monomerid=50047215&enzyme=DNA+Gyrase+Subunit+B&column=ki&startPg=0&Increment=50&submit=Search

> <Ligand HET ID in PDB>


> <PDB ID(s) for Ligand-Target Complex>


> <PubChem CID>
11996283

> <PubChem SID>
313068758

> <ChEBI ID of Ligand>


> <ChEMBL ID of Ligand>


> <DrugBank ID of Ligand>


> <IUPHAR_GRAC ID of Ligand>


> <KEGG ID of Ligand>


> <ZINC ID of Ligand>


> <Number of Protein Chains in Target (>1 implies a multichain complex)>
1

> <BindingDB Target Chain Sequence>
MVTALSDVNNTDNYGAGQIQVLEGLEAVRKRPGMYIGSTSERGLHHLVWEIVDNSIDEALAGYANQIEVVIEKDNWIKVTDNGRGIPVDIQEKMGRPAVEVILTVLHAGGKFGGGGYKVSGGLHGVGSSVVNALSQDLEVYVHRNETIYHQAYKKGVPQFDLKEVGTTDKTGTVIRFKADGEIFTETTVYNYETLQQRIRELAFLNKGIQITLRDERDEENVREDSYHYEGGIKSYVELLNENKEPIHDEPIYIHQSKDDIEVEIAIQYNSGYATNLLTYANNIHTYEGGTHEDGFKRALTRVLNSYGLSSKIMKEEKDRLSGEDTREGMTAIISIKHGDPQFEGQTKTKLGNSEVRQVVDKLFSEHFERFLYENPQVARTVVEKGIMAARARVAAKKAREVTRRKSALDVASLPGKLADCSSKSPEECEIFLVEGDSAGGSTKSGRDSRTQAILPLRGKILNVEKARLDRILNNNEIRQMITAFGTGIGGDFDLAKARYHKIVIMTDADVDGAHIRTLLLTFFYRFMRPLIEAGYVYIAQPPLYKLTQGKQKYYVYNDRELDKLKSELNPTPKWSIARYKGLGEMNADQLWETTMNPEHRALLQVKLEDAIEADQTFEMLMGDVVENRRQFIEDNAVYANLDF

> <PDB ID(s) of Target Chain>


> <UniProt (SwissProt) Recommended Name of Target Chain>
DNA gyrase subunit B

> <UniProt (SwissProt) Entry Name of Target Chain>
GYRB_STAAU

> <UniProt (SwissProt) Primary ID of Target Chain>
P0A0K8

> <UniProt (SwissProt) Secondary ID(s) of Target Chain>
P20832

> <UniProt (SwissProt) Alternative ID(s) of Target Chain>


> <UniProt (TrEMBL) Submitted Name of Target Chain>


> <UniProt (TrEMBL) Entry Name of Target Chain>


> <UniProt (TrEMBL) Primary ID of Target Chain>


> <UniProt (TrEMBL) Secondary ID(s) of Target Chain>


> <UniProt (TrEMBL) Alternative ID(s) of Target Chain>


$$$$

  Mrv0541 03271611212D          

 40 42  0  0  0  0            999 V2000
    7.8336   -3.0863    0.0000 C   0  0  0  0  0  0  0  0  0  0  0  0
    7.0095   -3.1236    0.0000 C   0  0  0  0  0  0  0  0  0  0  0  0
    6.6339   -3.8534    0.0000 C   0  0  2  0  0  0  0  0  0  0  0  0
    7.0741   -4.5462    0.0000 C   0  0  2  0  0  0  0  0  0  0  0  0
    7.8983   -4.5088    0.0000 C   0  0  0  0  0  0  0  0  0  0  0  0
    8.2822   -3.7786    0.0000 N   0  0  0  0  0  0  0  0  0  0  0  0
    5.8098   -3.8909    0.0000 N   0  0  0  0  0  0  0  0  0  0  0  0
    5.3653   -3.1959    0.0000 C   0  0  0  0  0  0  0  0  0  0  0  0
    4.5412   -3.2333    0.0000 C   0  0  0  0  0  0  0  0  0  0  0  0
    5.7450   -2.4634    0.0000 O   0  0  0  0  0  0  0  0  0  0  0  0
    9.1062   -3.7412    0.0000 C   0  0  0  0  0  0  0  0  0  0  0  0
    4.0299   -2.5856    0.0000 C   0  0  0  0  0  0  0  0  0  0  0  0
    3.2576   -2.8758    0.0000 C   0  0  0  0  0  0  0  0  0  0  0  0
    3.2951   -3.7000    0.0000 C   0  0  0  0  0  0  0  0  0  0  0  0
    4.0905   -3.9189    0.0000 N   0  0  0  0  0  0  0  0  0  0  0  0
    9.6190   -4.3840    0.0000 N   0  0  0  0  0  0  0  0  0  0  0  0
   10.3912   -4.0938    0.0000 C   0  0  0  0  0  0  0  0  0  0  0  0
   10.3538   -3.2696    0.0000 C   0  0  0  0  0  0  0  0  0  0  0  0
    9.5584   -3.0507    0.0000 S   0  0  0  0  0  0  0  0  0  0  0  0
   10.9985   -2.7549    0.0000 C   0  0  0  0  0  0  0  0  0  0  0  0
   11.7665   -3.0558    0.0000 O   0  0  0  0  0  0  0  0  0  0  0  0
   10.8750   -1.9392    0.0000 O   0  0  0  0  0  0  0  0  0  0  0  0
    2.6504   -4.2147    0.0000 C   0  0  0  0  0  0  0  0  0  0  0  0
    4.2511   -1.7908    0.0000 Cl  0  0  0  0  0  0  0  0  0  0  0  0
    2.5689   -2.4216    0.0000 Cl  0  0  0  0  0  0  0  0  0  0  0  0
    6.6934   -5.2781    0.0000 O   0  0  0  0  0  0  0  0  0  0  0  0
    5.8692   -5.3143    0.0000 C   0  0  0  0  0  0  0  0  0  0  0  0
   11.0799   -4.5479    0.0000 C   0  0  0  0  0  0  0  0  0  0  0  0
   11.0310   -5.3714    0.0000 O   0  0  0  0  0  0  0  0  0  0  0  0
   11.8175   -4.1785    0.0000 N   0  0  0  0  0  0  0  0  0  0  0  0
   12.5129   -4.6370    0.0000 C   0  0  0  0  0  0  0  0  0  0  0  0
   13.2576   -4.2641    0.0000 C   0  0  0  0  0  0  0  0  0  0  0  0
   12.4639   -5.4606    0.0000 C   0  0  0  0  0  0  0  0  0  0  0  0
   13.1527   -5.9147    0.0000 O   0  0  0  0  0  0  0  0  0  0  0  0
   13.2273   -5.0495    0.0000 C   0  0  0  0  0  0  0  0  0  0  0  0
   13.1527   -6.7397    0.0000 C   0  0  0  0  0  0  0  0  0  0  0  0
   13.3065   -3.4405    0.0000 O   0  0  0  0  0  0  0  0  0  0  0  0
   14.0442   -3.0711    0.0000 C   0  0  0  0  0  0  0  0  0  0  0  0
   13.9589   -4.6681    0.0000 O   0  0  0  0  0  0  0  0  0  0  0  0
   14.6549   -5.1110    0.0000 C   0  0  0  0  0  0  0  0  0  0  0  0
  1  2  1  0  0  0  0
  1  6  1  0  0  0  0
  3  2  1  0  0  0  0
  3  4  1  0  0  0  0
  4  5  1  0  0  0  0
  5  6  1  0  0  0  0
  3  7  1  6  0  0  0
  7  8  1  0  0  0  0
  8  9  1  0  0  0  0
  8 10  2  0  0  0  0
  6 11  1  0  0  0  0
  9 12  4  0  0  0  0
 12 13  4  0  0  0  0
 13 14  4  0  0  0  0
 14 15  4  0  0  0  0
 15  9  4  0  0  0  0
 11 16  4  0  0  0  0
 16 17  4  0  0  0  0
 17 18  4  0  0  0  0
 18 19  4  0  0  0  0
 19 11  4  0  0  0  0
 18 20  1  0  0  0  0
 20 21  1  0  0  0  0
 20 22  2  0  0  0  0
 14 23  1  0  0  0  0
 12 24  1  0  0  0  0
 13 25  1  0  0  0  0
  4 26  1  6  0  0  0
 26 27  1  0  0  0  0
 17 28  1  0  0  0  0
 28 29  2  0  0  0  0
 28 30  1  0  0  0  0
 30 31  1  0  0  0  0
 31 32  1  0  0  0  0
 31 33  1  0  0  0  0
 33 34  1  0  0  0  0
 31 35  1  0  0  0  0
 34 36  1  0  0  0  0
 32 37  1  0  0  0  0
 37 38  1  0  0  0  0
 35 39  1  0  0  0  0
 39 40  1  0  0  0  0
M  STY  1   1 DAT
M  SAL   1  1  15
M  SDT   1 MRV_IMPLICIT_H                                        
M  SDD   1     0.0000    0.0000    DR    ALL  0       0  
M  SED   1 IMPL_H1
M  END
> <From> 
www.bindingDB.org

> <BindingDB Reactant_set_id>
50271364

> <Ligand InChI>
InChI=1S/C24H33Cl2N5O8S/c1-12-15(25)16(26)17(27-12)20(32)28-13-6-7-31(8-14(13)39-5)23-29-18(19(40-23)22(34)35)21(33)30-24(9-36-2,10-37-3)11-38-4/h13-14,27H,6-11H2,1-5H3,(H,28,32)(H,30,33)(H,34,35)/t13-,14+/m1/s1

> <Ligand InChI Key>
MSAWOCRILUSFHL-KGLIPLIRSA-N

> <BindingDB MonomerID>
50047216

> <BindingDB Ligand Name>
CHEMBL3314568

> <Target Name Assigned by Curator or DataSource>
DNA Gyrase Subunit B

> <Target Source Organism According to Curator or DataSource>
Staphylococcus aureus

> <Ki (nM)>


> <IC50 (nM)>
<10.0

> <Kd (nM)>


> <EC50 (nM)>


> <kon (M-1-s-1)>


> <koff (s-1)>


> <pH>


> <Temp C>


> <Curation/DataSource>
ChEMBL

> <Article DOI>
10.1021/jm500462x

> <PMID>
24959892

> <PubChem AID>


> <Patent Number>


> <Authors>
Basarab, GS; Hill, PJ; Garner, CE; Hull, K; Green, O; Sherer, BA; Dangel, PB; Manchester, JI; Bist, S; Hauck, S; Zhou, F; Uria-Nickelsen, M; Illingworth, R; Alm, R; Rooney, M; Eakin, AE

> <Institution>
AstraZeneca

> <Link to Ligand in BindingDB>
http://www.bindingdb.org/bind/chemsearch/marvin/MolStructure.jsp?monomerid=50047216

> <Link to Ligand-Target Pair in BindingDB>
http://www.bindingdb.org/jsp/dbsearch/PrimarySearch_ki.jsp?energyterm=kJ/mole&tag=pol&polymerid=2626&target=DNA+Gyrase+Subunit+B&column=ki&startPg=0&Increment=50&submit=Search

> <Link to Ligand-Target Pair in BindingDB>
http://www.bindingdb.org/jsp/dbsearch/PrimarySearch_ki.jsp?energyterm=kJ/mole&tag=r21&monomerid=50047216&enzyme=DNA+Gyrase+Subunit+B&column=ki&startPg=0&Increment=50&submit=Search

> <Ligand HET ID in PDB>


> <PDB ID(s) for Ligand-Target Complex>


> <PubChem CID>
118707654

> <PubChem SID>
313068759

> <ChEBI ID of Ligand>


> <ChEMBL ID of Ligand>


> <DrugBank ID of Ligand>


> <IUPHAR_GRAC ID of Ligand>


> <KEGG ID of Ligand>


> <ZINC ID of Ligand>


> <Number of Protein Chains in Target (>1 implies a multichain complex)>
1

> <BindingDB Target Chain Sequence>
MVTALSDVNNTDNYGAGQIQVLEGLEAVRKRPGMYIGSTSERGLHHLVWEIVDNSIDEALAGYANQIEVVIEKDNWIKVTDNGRGIPVDIQEKMGRPAVEVILTVLHAGGKFGGGGYKVSGGLHGVGSSVVNALSQDLEVYVHRNETIYHQAYKKGVPQFDLKEVGTTDKTGTVIRFKADGEIFTETTVYNYETLQQRIRELAFLNKGIQITLRDERDEENVREDSYHYEGGIKSYVELLNENKEPIHDEPIYIHQSKDDIEVEIAIQYNSGYATNLLTYANNIHTYEGGTHEDGFKRALTRVLNSYGLSSKIMKEEKDRLSGEDTREGMTAIISIKHGDPQFEGQTKTKLGNSEVRQVVDKLFSEHFERFLYENPQVARTVVEKGIMAARARVAAKKAREVTRRKSALDVASLPGKLADCSSKSPEECEIFLVEGDSAGGSTKSGRDSRTQAILPLRGKILNVEKARLDRILNNNEIRQMITAFGTGIGGDFDLAKARYHKIVIMTDADVDGAHIRTLLLTFFYRFMRPLIEAGYVYIAQPPLYKLTQGKQKYYVYNDRELDKLKSELNPTPKWSIARYKGLGEMNADQLWETTMNPEHRALLQVKLEDAIEADQTFEMLMGDVVENRRQFIEDNAVYANLDF

> <PDB ID(s) of Target Chain>


> <UniProt (SwissProt) Recommended Name of Target Chain>
DNA gyrase subunit B

> <UniProt (SwissProt) Entry Name of Target Chain>
GYRB_STAAU

> <UniProt (SwissProt) Primary ID of Target Chain>
P0A0K8

> <UniProt (SwissProt) Secondary ID(s) of Target Chain>
P20832

> <UniProt (SwissProt) Alternative ID(s) of Target Chain>


> <UniProt (TrEMBL) Submitted Name of Target Chain>


> <UniProt (TrEMBL) Entry Name of Target Chain>


> <UniProt (TrEMBL) Primary ID of Target Chain>


> <UniProt (TrEMBL) Secondary ID(s) of Target Chain>


> <UniProt (TrEMBL) Alternative ID(s) of Target Chain>


$$$$

  Mrv0541 03271611212D          

 36 39  0  0  0  0            999 V2000
    7.8336   -3.0863    0.0000 C   0  0  0  0  0  0  0  0  0  0  0  0
    7.0095   -3.1236    0.0000 C   0  0  0  0  0  0  0  0  0  0  0  0
    6.6339   -3.8534    0.0000 C   0  0  2  0  0  0  0  0  0  0  0  0
    7.0741   -4.5462    0.0000 C   0  0  2  0  0  0  0  0  0  0  0  0
    7.8983   -4.5088    0.0000 C   0  0  0  0  0  0  0  0  0  0  0  0
    8.2822   -3.7786    0.0000 N   0  0  0  0  0  0  0  0  0  0  0  0
    5.8098   -3.8909    0.0000 N   0  0  0  0  0  0  0  0  0  0  0  0
    5.3653   -3.1959    0.0000 C   0  0  0  0  0  0  0  0  0  0  0  0
    4.5412   -3.2333    0.0000 C   0  0  0  0  0  0  0  0  0  0  0  0
    5.7450   -2.4634    0.0000 O   0  0  0  0  0  0  0  0  0  0  0  0
    9.1062   -3.7412    0.0000 C   0  0  0  0  0  0  0  0  0  0  0  0
    4.0299   -2.5856    0.0000 C   0  0  0  0  0  0  0  0  0  0  0  0
    3.2576   -2.8758    0.0000 C   0  0  0  0  0  0  0  0  0  0  0  0
    3.2951   -3.7000    0.0000 C   0  0  0  0  0  0  0  0  0  0  0  0
    4.0905   -3.9189    0.0000 N   0  0  0  0  0  0  0  0  0  0  0  0
    9.6190   -4.3840    0.0000 N   0  0  0  0  0  0  0  0  0  0  0  0
   10.3912   -4.0938    0.0000 C   0  0  0  0  0  0  0  0  0  0  0  0
   10.3538   -3.2696    0.0000 C   0  0  0  0  0  0  0  0  0  0  0  0
    9.5584   -3.0507    0.0000 S   0  0  0  0  0  0  0  0  0  0  0  0
   10.9985   -2.7549    0.0000 C   0  0  0  0  0  0  0  0  0  0  0  0
   11.7665   -3.0558    0.0000 O   0  0  0  0  0  0  0  0  0  0  0  0
   10.8750   -1.9392    0.0000 O   0  0  0  0  0  0  0  0  0  0  0  0
    2.6504   -4.2147    0.0000 C   0  0  0  0  0  0  0  0  0  0  0  0
    4.2511   -1.7908    0.0000 Cl  0  0  0  0  0  0  0  0  0  0  0  0
    2.5689   -2.4216    0.0000 Cl  0  0  0  0  0  0  0  0  0  0  0  0
    6.6934   -5.2781    0.0000 O   0  0  0  0  0  0  0  0  0  0  0  0
    5.8692   -5.3143    0.0000 C   0  0  0  0  0  0  0  0  0  0  0  0
   11.0799   -4.5479    0.0000 C   0  0  0  0  0  0  0  0  0  0  0  0
   11.0310   -5.3714    0.0000 O   0  0  0  0  0  0  0  0  0  0  0  0
   11.8175   -4.1785    0.0000 N   0  0  0  0  0  0  0  0  0  0  0  0
   12.5129   -4.6370    0.0000 C   0  0  0  0  0  0  0  0  0  0  0  0
   13.2576   -4.2641    0.0000 C   0  0  0  0  0  0  0  0  0  0  0  0
   13.9900   -4.6438    0.0000 O   0  0  0  0  0  0  0  0  0  0  0  0
   14.5774   -4.0645    0.0000 C   0  0  0  0  0  0  0  0  0  0  0  0
   14.2080   -3.3268    0.0000 C   0  0  0  0  0  0  0  0  0  0  0  0
   13.3923   -3.4502    0.0000 O   0  0  0  0  0  0  0  0  0  0  0  0
  1  2  1  0  0  0  0
  1  6  1  0  0  0  0
  3  2  1  0  0  0  0
  3  4  1  0  0  0  0
  4  5  1  0  0  0  0
  5  6  1  0  0  0  0
  3  7  1  6  0  0  0
  7  8  1  0  0  0  0
  8  9  1  0  0  0  0
  8 10  2  0  0  0  0
  6 11  1  0  0  0  0
  9 12  4  0  0  0  0
 12 13  4  0  0  0  0
 13 14  4  0  0  0  0
 14 15  4  0  0  0  0
 15  9  4  0  0  0  0
 11 16  4  0  0  0  0
 16 17  4  0  0  0  0
 17 18  4  0  0  0  0
 18 19  4  0  0  0  0
 19 11  4  0  0  0  0
 18 20  1  0  0  0  0
 20 21  1  0  0  0  0
 20 22  2  0  0  0  0
 14 23  1  0  0  0  0
 12 24  1  0  0  0  0
 13 25  1  0  0  0  0
  4 26  1  6  0  0  0
 26 27  1  0  0  0  0
 17 28  1  0  0  0  0
 28 29  2  0  0  0  0
 28 30  1  0  0  0  0
 30 31  1  0  0  0  0
 31 32  1  0  0  0  0
 32 33  1  0  0  0  0
 32 36  1  0  0  0  0
 33 34  1  0  0  0  0
 34 35  1  0  0  0  0
 35 36  1  0  0  0  0
M  STY  1   1 DAT
M  SAL   1  1  15
M  SDT   1 MRV_IMPLICIT_H                                        
M  SDD   1     0.0000    0.0000    DR    ALL  0       0  
M  SED   1 IMPL_H1
M  END
> <From> 
www.bindingDB.org

> <BindingDB Reactant_set_id>
50271365

> <Ligand InChI>
InChI=1S/C21H25Cl2N5O7S/c1-9-13(22)14(23)15(25-9)19(30)26-10-3-4-28(8-11(10)33-2)21-27-16(17(36-21)20(31)32)18(29)24-7-12-34-5-6-35-12/h10-12,25H,3-8H2,1-2H3,(H,24,29)(H,26,30)(H,31,32)/t10-,11+/m1/s1

> <Ligand InChI Key>
DWXYBCSTQUSGMP-MNOVXSKESA-N

> <BindingDB MonomerID>
50047217

> <BindingDB Ligand Name>
CHEMBL3314569

> <Target Name Assigned by Curator or DataSource>
DNA Gyrase Subunit B

> <Target Source Organism According to Curator or DataSource>
Staphylococcus aureus

> <Ki (nM)>


> <IC50 (nM)>
<10.0

> <Kd (nM)>


> <EC50 (nM)>


> <kon (M-1-s-1)>


> <koff (s-1)>


> <pH>


> <Temp C>


> <Curation/DataSource>
ChEMBL

> <Article DOI>
10.1021/jm500462x

> <PMID>
24959892

> <PubChem AID>


> <Patent Number>


> <Authors>
Basarab, GS; Hill, PJ; Garner, CE; Hull, K; Green, O; Sherer, BA; Dangel, PB; Manchester, JI; Bist, S; Hauck, S; Zhou, F; Uria-Nickelsen, M; Illingworth, R; Alm, R; Rooney, M; Eakin, AE

> <Institution>
AstraZeneca

> <Link to Ligand in BindingDB>
http://www.bindingdb.org/bind/chemsearch/marvin/MolStructure.jsp?monomerid=50047217

> <Link to Ligand-Target Pair in BindingDB>
http://www.bindingdb.org/jsp/dbsearch/PrimarySearch_ki.jsp?energyterm=kJ/mole&tag=pol&polymerid=2626&target=DNA+Gyrase+Subunit+B&column=ki&startPg=0&Increment=50&submit=Search

> <Link to Ligand-Target Pair in BindingDB>
http://www.bindingdb.org/jsp/dbsearch/PrimarySearch_ki.jsp?energyterm=kJ/mole&tag=r21&monomerid=50047217&enzyme=DNA+Gyrase+Subunit+B&column=ki&startPg=0&Increment=50&submit=Search

> <Ligand HET ID in PDB>


> <PDB ID(s) for Ligand-Target Complex>


> <PubChem CID>
68517306

> <PubChem SID>
313068760

> <ChEBI ID of Ligand>


> <ChEMBL ID of Ligand>


> <DrugBank ID of Ligand>


> <IUPHAR_GRAC ID of Ligand>


> <KEGG ID of Ligand>


> <ZINC ID of Ligand>


> <Number of Protein Chains in Target (>1 implies a multichain complex)>
1

> <BindingDB Target Chain Sequence>
MVTALSDVNNTDNYGAGQIQVLEGLEAVRKRPGMYIGSTSERGLHHLVWEIVDNSIDEALAGYANQIEVVIEKDNWIKVTDNGRGIPVDIQEKMGRPAVEVILTVLHAGGKFGGGGYKVSGGLHGVGSSVVNALSQDLEVYVHRNETIYHQAYKKGVPQFDLKEVGTTDKTGTVIRFKADGEIFTETTVYNYETLQQRIRELAFLNKGIQITLRDERDEENVREDSYHYEGGIKSYVELLNENKEPIHDEPIYIHQSKDDIEVEIAIQYNSGYATNLLTYANNIHTYEGGTHEDGFKRALTRVLNSYGLSSKIMKEEKDRLSGEDTREGMTAIISIKHGDPQFEGQTKTKLGNSEVRQVVDKLFSEHFERFLYENPQVARTVVEKGIMAARARVAAKKAREVTRRKSALDVASLPGKLADCSSKSPEECEIFLVEGDSAGGSTKSGRDSRTQAILPLRGKILNVEKARLDRILNNNEIRQMITAFGTGIGGDFDLAKARYHKIVIMTDADVDGAHIRTLLLTFFYRFMRPLIEAGYVYIAQPPLYKLTQGKQKYYVYNDRELDKLKSELNPTPKWSIARYKGLGEMNADQLWETTMNPEHRALLQVKLEDAIEADQTFEMLMGDVVENRRQFIEDNAVYANLDF

> <PDB ID(s) of Target Chain>


> <UniProt (SwissProt) Recommended Name of Target Chain>
DNA gyrase subunit B

> <UniProt (SwissProt) Entry Name of Target Chain>
GYRB_STAAU

> <UniProt (SwissProt) Primary ID of Target Chain>
P0A0K8

> <UniProt (SwissProt) Secondary ID(s) of Target Chain>
P20832

> <UniProt (SwissProt) Alternative ID(s) of Target Chain>


> <UniProt (TrEMBL) Submitted Name of Target Chain>


> <UniProt (TrEMBL) Entry Name of Target Chain>


> <UniProt (TrEMBL) Primary ID of Target Chain>


> <UniProt (TrEMBL) Secondary ID(s) of Target Chain>


> <UniProt (TrEMBL) Alternative ID(s) of Target Chain>


$$$$

  Mrv0541 03271611212D          

 38 41  0  0  0  0            999 V2000
    7.8336   -3.0863    0.0000 C   0  0  0  0  0  0  0  0  0  0  0  0
    7.0095   -3.1236    0.0000 C   0  0  0  0  0  0  0  0  0  0  0  0
    6.6339   -3.8534    0.0000 C   0  0  2  0  0  0  0  0  0  0  0  0
    7.0741   -4.5462    0.0000 C   0  0  2  0  0  0  0  0  0  0  0  0
    7.8983   -4.5088    0.0000 C   0  0  0  0  0  0  0  0  0  0  0  0
    8.2822   -3.7786    0.0000 N   0  0  0  0  0  0  0  0  0  0  0  0
    5.8098   -3.8909    0.0000 N   0  0  0  0  0  0  0  0  0  0  0  0
    5.3653   -3.1959    0.0000 C   0  0  0  0  0  0  0  0  0  0  0  0
    4.5412   -3.2333    0.0000 C   0  0  0  0  0  0  0  0  0  0  0  0
    5.7450   -2.4634    0.0000 O   0  0  0  0  0  0  0  0  0  0  0  0
    9.1062   -3.7412    0.0000 C   0  0  0  0  0  0  0  0  0  0  0  0
    4.0299   -2.5856    0.0000 C   0  0  0  0  0  0  0  0  0  0  0  0
    3.2576   -2.8758    0.0000 C   0  0  0  0  0  0  0  0  0  0  0  0
    3.2951   -3.7000    0.0000 C   0  0  0  0  0  0  0  0  0  0  0  0
    4.0905   -3.9189    0.0000 N   0  0  0  0  0  0  0  0  0  0  0  0
    9.6190   -4.3840    0.0000 N   0  0  0  0  0  0  0  0  0  0  0  0
   10.3912   -4.0938    0.0000 C   0  0  0  0  0  0  0  0  0  0  0  0
   10.3538   -3.2696    0.0000 C   0  0  0  0  0  0  0  0  0  0  0  0
    9.5584   -3.0507    0.0000 S   0  0  0  0  0  0  0  0  0  0  0  0
   10.9985   -2.7549    0.0000 C   0  0  0  0  0  0  0  0  0  0  0  0
   11.7665   -3.0558    0.0000 O   0  0  0  0  0  0  0  0  0  0  0  0
   10.8750   -1.9392    0.0000 O   0  0  0  0  0  0  0  0  0  0  0  0
    2.6504   -4.2147    0.0000 C   0  0  0  0  0  0  0  0  0  0  0  0
    4.2511   -1.7908    0.0000 Cl  0  0  0  0  0  0  0  0  0  0  0  0
    2.5689   -2.4216    0.0000 Cl  0  0  0  0  0  0  0  0  0  0  0  0
    6.6934   -5.2781    0.0000 O   0  0  0  0  0  0  0  0  0  0  0  0
    5.8692   -5.3143    0.0000 C   0  0  0  0  0  0  0  0  0  0  0  0
   11.0799   -4.5479    0.0000 C   0  0  0  0  0  0  0  0  0  0  0  0
   11.0310   -5.3714    0.0000 O   0  0  0  0  0  0  0  0  0  0  0  0
   11.8175   -4.1785    0.0000 N   0  0  0  0  0  0  0  0  0  0  0  0
   12.5129   -4.6370    0.0000 C   0  0  0  0  0  0  0  0  0  0  0  0
   12.4639   -5.4606    0.0000 C   0  0  0  0  0  0  0  0  0  0  0  0
   13.1527   -5.9147    0.0000 O   0  0  0  0  0  0  0  0  0  0  0  0
   13.8904   -5.5454    0.0000 C   0  0  0  0  0  0  0  0  0  0  0  0
   13.9393   -4.7218    0.0000 O   0  0  0  0  0  0  0  0  0  0  0  0
   13.2505   -4.2676    0.0000 C   0  0  0  0  0  0  0  0  0  0  0  0
   14.3029   -6.2598    0.0000 C   0  0  0  0  0  0  0  0  0  0  0  0
   14.7154   -5.5454    0.0000 C   0  0  0  0  0  0  0  0  0  0  0  0
  1  2  1  0  0  0  0
  1  6  1  0  0  0  0
  3  2  1  0  0  0  0
  3  4  1  0  0  0  0
  4  5  1  0  0  0  0
  5  6  1  0  0  0  0
  3  7  1  6  0  0  0
  7  8  1  0  0  0  0
  8  9  1  0  0  0  0
  8 10  2  0  0  0  0
  6 11  1  0  0  0  0
  9 12  4  0  0  0  0
 12 13  4  0  0  0  0
 13 14  4  0  0  0  0
 14 15  4  0  0  0  0
 15  9  4  0  0  0  0
 11 16  4  0  0  0  0
 16 17  4  0  0  0  0
 17 18  4  0  0  0  0
 18 19  4  0  0  0  0
 19 11  4  0  0  0  0
 18 20  1  0  0  0  0
 20 21  1  0  0  0  0
 20 22  2  0  0  0  0
 14 23  1  0  0  0  0
 12 24  1  0  0  0  0
 13 25  1  0  0  0  0
  4 26  1  6  0  0  0
 26 27  1  0  0  0  0
 17 28  1  0  0  0  0
 28 29  2  0  0  0  0
 28 30  1  0  0  0  0
 30 31  1  0  0  0  0
 31 32  1  0  0  0  0
 31 36  1  0  0  0  0
 32 33  1  0  0  0  0
 33 34  1  0  0  0  0
 34 35  1  0  0  0  0
 35 36  1  0  0  0  0
 34 37  1  0  0  0  0
 34 38  1  0  0  0  0
M  STY  1   1 DAT
M  SAL   1  1  15
M  SDT   1 MRV_IMPLICIT_H                                        
M  SDD   1     0.0000    0.0000    DR    ALL  0       0  
M  SED   1 IMPL_H1
M  END
> <From> 
www.bindingDB.org

> <BindingDB Reactant_set_id>
50271366

> <Ligand InChI>
InChI=1S/C23H29Cl2N5O7S/c1-10-14(24)15(25)16(26-10)19(31)28-12-5-6-30(7-13(12)35-4)22-29-17(18(38-22)21(33)34)20(32)27-11-8-36-23(2,3)37-9-11/h11-13,26H,5-9H2,1-4H3,(H,27,32)(H,28,31)(H,33,34)/t12-,13+/m1/s1

> <Ligand InChI Key>
WBDULDQSWCLBSA-OLZOCXBDSA-N

> <BindingDB MonomerID>
50047218

> <BindingDB Ligand Name>
CHEMBL3314570

> <Target Name Assigned by Curator or DataSource>
DNA Gyrase Subunit B

> <Target Source Organism According to Curator or DataSource>
Staphylococcus aureus

> <Ki (nM)>


> <IC50 (nM)>
<10.0

> <Kd (nM)>


> <EC50 (nM)>


> <kon (M-1-s-1)>


> <koff (s-1)>


> <pH>


> <Temp C>


> <Curation/DataSource>
ChEMBL

> <Article DOI>
10.1021/jm500462x

> <PMID>
24959892

> <PubChem AID>


> <Patent Number>


> <Authors>
Basarab, GS; Hill, PJ; Garner, CE; Hull, K; Green, O; Sherer, BA; Dangel, PB; Manchester, JI; Bist, S; Hauck, S; Zhou, F; Uria-Nickelsen, M; Illingworth, R; Alm, R; Rooney, M; Eakin, AE

> <Institution>
AstraZeneca

> <Link to Ligand in BindingDB>
http://www.bindingdb.org/bind/chemsearch/marvin/MolStructure.jsp?monomerid=50047218

> <Link to Ligand-Target Pair in BindingDB>
http://www.bindingdb.org/jsp/dbsearch/PrimarySearch_ki.jsp?energyterm=kJ/mole&tag=pol&polymerid=2626&target=DNA+Gyrase+Subunit+B&column=ki&startPg=0&Increment=50&submit=Search

> <Link to Ligand-Target Pair in BindingDB>
http://www.bindingdb.org/jsp/dbsearch/PrimarySearch_ki.jsp?energyterm=kJ/mole&tag=r21&monomerid=50047218&enzyme=DNA+Gyrase+Subunit+B&column=ki&startPg=0&Increment=50&submit=Search

> <Ligand HET ID in PDB>


> <PDB ID(s) for Ligand-Target Complex>


> <PubChem CID>
118707655

> <PubChem SID>
313068761

> <ChEBI ID of Ligand>


> <ChEMBL ID of Ligand>


> <DrugBank ID of Ligand>


> <IUPHAR_GRAC ID of Ligand>


> <KEGG ID of Ligand>


> <ZINC ID of Ligand>


> <Number of Protein Chains in Target (>1 implies a multichain complex)>
1

> <BindingDB Target Chain Sequence>
MVTALSDVNNTDNYGAGQIQVLEGLEAVRKRPGMYIGSTSERGLHHLVWEIVDNSIDEALAGYANQIEVVIEKDNWIKVTDNGRGIPVDIQEKMGRPAVEVILTVLHAGGKFGGGGYKVSGGLHGVGSSVVNALSQDLEVYVHRNETIYHQAYKKGVPQFDLKEVGTTDKTGTVIRFKADGEIFTETTVYNYETLQQRIRELAFLNKGIQITLRDERDEENVREDSYHYEGGIKSYVELLNENKEPIHDEPIYIHQSKDDIEVEIAIQYNSGYATNLLTYANNIHTYEGGTHEDGFKRALTRVLNSYGLSSKIMKEEKDRLSGEDTREGMTAIISIKHGDPQFEGQTKTKLGNSEVRQVVDKLFSEHFERFLYENPQVARTVVEKGIMAARARVAAKKAREVTRRKSALDVASLPGKLADCSSKSPEECEIFLVEGDSAGGSTKSGRDSRTQAILPLRGKILNVEKARLDRILNNNEIRQMITAFGTGIGGDFDLAKARYHKIVIMTDADVDGAHIRTLLLTFFYRFMRPLIEAGYVYIAQPPLYKLTQGKQKYYVYNDRELDKLKSELNPTPKWSIARYKGLGEMNADQLWETTMNPEHRALLQVKLEDAIEADQTFEMLMGDVVENRRQFIEDNAVYANLDF

> <PDB ID(s) of Target Chain>


> <UniProt (SwissProt) Recommended Name of Target Chain>
DNA gyrase subunit B

> <UniProt (SwissProt) Entry Name of Target Chain>
GYRB_STAAU

> <UniProt (SwissProt) Primary ID of Target Chain>
P0A0K8

> <UniProt (SwissProt) Secondary ID(s) of Target Chain>
P20832

> <UniProt (SwissProt) Alternative ID(s) of Target Chain>


> <UniProt (TrEMBL) Submitted Name of Target Chain>


> <UniProt (TrEMBL) Entry Name of Target Chain>


> <UniProt (TrEMBL) Primary ID of Target Chain>


> <UniProt (TrEMBL) Secondary ID(s) of Target Chain>


> <UniProt (TrEMBL) Alternative ID(s) of Target Chain>


$$$$

  Mrv0541 03271611212D          

 37 40  0  0  0  0            999 V2000
   19.2814  -12.2811    0.0000 C   0  0  0  0  0  0  0  0  0  0  0  0
   19.9699  -11.8408    0.0000 O   0  0  0  0  0  0  0  0  0  0  0  0
   19.7639  -11.0500    0.0000 C   0  0  0  0  0  0  0  0  0  0  0  0
   18.9481  -11.0015    0.0000 C   0  0  0  0  0  0  0  0  0  0  0  0
   18.6500  -11.7624    0.0000 O   0  0  0  0  0  0  0  0  0  0  0  0
   11.8355  -11.9060    0.0000 N   0  0  0  0  0  0  0  0  0  0  0  0
   15.1320  -11.7562    0.0000 C   0  0  0  0  0  0  0  0  0  0  0  0
   10.2768   -9.8059    0.0000 Cl  0  0  0  0  0  0  0  0  0  0  0  0
   17.8433  -12.1936    0.0000 N   0  0  0  0  0  0  0  0  0  0  0  0
   17.0567  -13.3865    0.0000 O   0  0  0  0  0  0  0  0  0  0  0  0
   10.1162  -11.9340    0.0000 N   0  0  0  0  0  0  0  0  0  0  0  0
   17.0242  -10.7699    0.0000 C   0  0  0  0  0  0  0  0  0  0  0  0
    8.5947  -10.4367    0.0000 Cl  0  0  0  0  0  0  0  0  0  0  0  0
   16.9008   -9.9543    0.0000 O   0  0  0  0  0  0  0  0  0  0  0  0
   13.0352  -11.1387    0.0000 C   0  0  0  0  0  0  0  0  0  0  0  0
   11.7707  -10.4785    0.0000 O   0  0  0  0  0  0  0  0  0  0  0  0
   16.4169  -12.1089    0.0000 C   0  0  0  0  0  0  0  0  0  0  0  0
   13.8594  -11.1014    0.0000 C   0  0  0  0  0  0  0  0  0  0  0  0
   15.6447  -12.3991    0.0000 N   0  0  0  0  0  0  0  0  0  0  0  0
    9.3208  -11.7151    0.0000 C   0  0  0  0  0  0  0  0  0  0  0  0
   13.0998  -12.5612    0.0000 C   0  0  1  0  0  0  0  0  0  0  0  0
    8.6761  -12.2298    0.0000 C   0  0  0  0  0  0  0  0  0  0  0  0
   16.3796  -11.2847    0.0000 C   0  0  0  0  0  0  0  0  0  0  0  0
   13.9240  -12.5239    0.0000 C   0  0  0  0  0  0  0  0  0  0  0  0
   14.3079  -11.7937    0.0000 N   0  0  0  0  0  0  0  0  0  0  0  0
   11.3910  -11.2110    0.0000 C   0  0  0  0  0  0  0  0  0  0  0  0
   18.5386  -12.6521    0.0000 C   0  0  0  0  0  0  0  0  0  0  0  0
   17.1057  -12.5629    0.0000 C   0  0  0  0  0  0  0  0  0  0  0  0
   12.6597  -11.8685    0.0000 C   0  0  2  0  0  0  0  0  0  0  0  0
   12.7192  -13.2931    0.0000 O   0  0  0  0  0  0  0  0  0  0  0  0
   17.7923  -11.0709    0.0000 O   0  0  0  0  0  0  0  0  0  0  0  0
   10.0556  -10.6007    0.0000 C   0  0  0  0  0  0  0  0  0  0  0  0
   11.8950  -13.3294    0.0000 C   0  0  0  0  0  0  0  0  0  0  0  0
   10.5670  -11.2484    0.0000 C   0  0  0  0  0  0  0  0  0  0  0  0
    9.2834  -10.8909    0.0000 C   0  0  0  0  0  0  0  0  0  0  0  0
   19.9721  -12.7333    0.0000 C   0  0  0  0  0  0  0  0  0  0  0  0
   15.5842  -11.0657    0.0000 S   0  0  0  0  0  0  0  0  0  0  0  0
  1  2  1  0  0  0  0
  2  3  1  0  0  0  0
  3  4  1  0  0  0  0
  4  5  1  0  0  0  0
  5  1  1  0  0  0  0
 29 15  1  0  0  0  0
 37  7  4  0  0  0  0
 20 11  4  0  0  0  0
 25  7  1  0  0  0  0
 26 16  2  0  0  0  0
 21 30  1  6  0  0  0
 27  1  1  0  0  0  0
 21 29  1  0  0  0  0
  7 19  4  0  0  0  0
 29  6  1  6  0  0  0
 17 28  1  0  0  0  0
 23 12  1  0  0  0  0
 12 14  2  0  0  0  0
 35 20  4  0  0  0  0
 18 15  1  0  0  0  0
 30 33  1  0  0  0  0
 24 25  1  0  0  0  0
 32  8  1  0  0  0  0
 20 22  1  0  0  0  0
 28 10  2  0  0  0  0
 26 34  1  0  0  0  0
 34 32  4  0  0  0  0
 12 31  1  0  0  0  0
 21 24  1  0  0  0  0
  1 36  1  0  0  0  0
 35 13  1  0  0  0  0
 32 35  4  0  0  0  0
 11 34  4  0  0  0  0
 17 23  4  0  0  0  0
  6 26  1  0  0  0  0
 19 17  4  0  0  0  0
 23 37  4  0  0  0  0
  9 27  1  0  0  0  0
 18 25  1  0  0  0  0
 28  9  1  0  0  0  0
M  STY  1   1 DAT
M  SAL   1  1  11
M  SDT   1 MRV_IMPLICIT_H                                        
M  SDD   1     0.0000    0.0000    DR    ALL  0       0  
M  SED   1 IMPL_H1
M  END
> <From> 
www.bindingDB.org

> <BindingDB Reactant_set_id>
50271367

> <Ligand InChI>
InChI=1S/C22H27Cl2N5O7S/c1-10-13(23)14(24)15(26-10)19(31)27-11-4-5-29(8-12(11)34-3)21-28-16(17(37-21)20(32)33)18(30)25-9-22(2)35-6-7-36-22/h11-12,26H,4-9H2,1-3H3,(H,25,30)(H,27,31)(H,32,33)/t11-,12+/m1/s1

> <Ligand InChI Key>
UMWHLJZBXHUEFM-NEPJUHHUSA-N

> <BindingDB MonomerID>
50047219

> <BindingDB Ligand Name>
CHEMBL3314571

> <Target Name Assigned by Curator or DataSource>
DNA Gyrase Subunit B

> <Target Source Organism According to Curator or DataSource>
Staphylococcus aureus

> <Ki (nM)>


> <IC50 (nM)>
<10.0

> <Kd (nM)>


> <EC50 (nM)>


> <kon (M-1-s-1)>


> <koff (s-1)>


> <pH>


> <Temp C>


> <Curation/DataSource>
ChEMBL

> <Article DOI>
10.1021/jm500462x

> <PMID>
24959892

> <PubChem AID>


> <Patent Number>


> <Authors>
Basarab, GS; Hill, PJ; Garner, CE; Hull, K; Green, O; Sherer, BA; Dangel, PB; Manchester, JI; Bist, S; Hauck, S; Zhou, F; Uria-Nickelsen, M; Illingworth, R; Alm, R; Rooney, M; Eakin, AE

> <Institution>
AstraZeneca

> <Link to Ligand in BindingDB>
http://www.bindingdb.org/bind/chemsearch/marvin/MolStructure.jsp?monomerid=50047219

> <Link to Ligand-Target Pair in BindingDB>
http://www.bindingdb.org/jsp/dbsearch/PrimarySearch_ki.jsp?energyterm=kJ/mole&tag=pol&polymerid=2626&target=DNA+Gyrase+Subunit+B&column=ki&startPg=0&Increment=50&submit=Search

> <Link to Ligand-Target Pair in BindingDB>
http://www.bindingdb.org/jsp/dbsearch/PrimarySearch_ki.jsp?energyterm=kJ/mole&tag=r21&monomerid=50047219&enzyme=DNA+Gyrase+Subunit+B&column=ki&startPg=0&Increment=50&submit=Search

> <Ligand HET ID in PDB>


> <PDB ID(s) for Ligand-Target Complex>


> <PubChem CID>
118707656

> <PubChem SID>
313068762

> <ChEBI ID of Ligand>


> <ChEMBL ID of Ligand>


> <DrugBank ID of Ligand>


> <IUPHAR_GRAC ID of Ligand>


> <KEGG ID of Ligand>


> <ZINC ID of Ligand>


> <Number of Protein Chains in Target (>1 implies a multichain complex)>
1

> <BindingDB Target Chain Sequence>
MVTALSDVNNTDNYGAGQIQVLEGLEAVRKRPGMYIGSTSERGLHHLVWEIVDNSIDEALAGYANQIEVVIEKDNWIKVTDNGRGIPVDIQEKMGRPAVEVILTVLHAGGKFGGGGYKVSGGLHGVGSSVVNALSQDLEVYVHRNETIYHQAYKKGVPQFDLKEVGTTDKTGTVIRFKADGEIFTETTVYNYETLQQRIRELAFLNKGIQITLRDERDEENVREDSYHYEGGIKSYVELLNENKEPIHDEPIYIHQSKDDIEVEIAIQYNSGYATNLLTYANNIHTYEGGTHEDGFKRALTRVLNSYGLSSKIMKEEKDRLSGEDTREGMTAIISIKHGDPQFEGQTKTKLGNSEVRQVVDKLFSEHFERFLYENPQVARTVVEKGIMAARARVAAKKAREVTRRKSALDVASLPGKLADCSSKSPEECEIFLVEGDSAGGSTKSGRDSRTQAILPLRGKILNVEKARLDRILNNNEIRQMITAFGTGIGGDFDLAKARYHKIVIMTDADVDGAHIRTLLLTFFYRFMRPLIEAGYVYIAQPPLYKLTQGKQKYYVYNDRELDKLKSELNPTPKWSIARYKGLGEMNADQLWETTMNPEHRALLQVKLEDAIEADQTFEMLMGDVVENRRQFIEDNAVYANLDF

> <PDB ID(s) of Target Chain>


> <UniProt (SwissProt) Recommended Name of Target Chain>
DNA gyrase subunit B

> <UniProt (SwissProt) Entry Name of Target Chain>
GYRB_STAAU

> <UniProt (SwissProt) Primary ID of Target Chain>
P0A0K8

> <UniProt (SwissProt) Secondary ID(s) of Target Chain>
P20832

> <UniProt (SwissProt) Alternative ID(s) of Target Chain>


> <UniProt (TrEMBL) Submitted Name of Target Chain>


> <UniProt (TrEMBL) Entry Name of Target Chain>


> <UniProt (TrEMBL) Primary ID of Target Chain>


> <UniProt (TrEMBL) Secondary ID(s) of Target Chain>


> <UniProt (TrEMBL) Alternative ID(s) of Target Chain>


$$$$

  Mrv0541 03271611212D          

 38 41  0  0  0  0            999 V2000
   19.2814  -12.2811    0.0000 C   0  0  0  0  0  0  0  0  0  0  0  0
   11.8355  -11.9060    0.0000 N   0  0  0  0  0  0  0  0  0  0  0  0
   15.1320  -11.7562    0.0000 C   0  0  0  0  0  0  0  0  0  0  0  0
   10.2768   -9.8059    0.0000 Cl  0  0  0  0  0  0  0  0  0  0  0  0
   17.8433  -12.1936    0.0000 N   0  0  0  0  0  0  0  0  0  0  0  0
   17.0567  -13.3865    0.0000 O   0  0  0  0  0  0  0  0  0  0  0  0
   10.1162  -11.9340    0.0000 N   0  0  0  0  0  0  0  0  0  0  0  0
   17.0242  -10.7699    0.0000 C   0  0  0  0  0  0  0  0  0  0  0  0
    8.5947  -10.4367    0.0000 Cl  0  0  0  0  0  0  0  0  0  0  0  0
   16.9008   -9.9543    0.0000 O   0  0  0  0  0  0  0  0  0  0  0  0
   13.0352  -11.1387    0.0000 C   0  0  0  0  0  0  0  0  0  0  0  0
   11.7707  -10.4785    0.0000 O   0  0  0  0  0  0  0  0  0  0  0  0
   16.4169  -12.1089    0.0000 C   0  0  0  0  0  0  0  0  0  0  0  0
   13.8594  -11.1014    0.0000 C   0  0  0  0  0  0  0  0  0  0  0  0
   15.6447  -12.3991    0.0000 N   0  0  0  0  0  0  0  0  0  0  0  0
    9.3208  -11.7151    0.0000 C   0  0  0  0  0  0  0  0  0  0  0  0
   13.0998  -12.5612    0.0000 C   0  0  1  0  0  0  0  0  0  0  0  0
    8.6761  -12.2298    0.0000 C   0  0  0  0  0  0  0  0  0  0  0  0
   16.3796  -11.2847    0.0000 C   0  0  0  0  0  0  0  0  0  0  0  0
   13.9240  -12.5239    0.0000 C   0  0  0  0  0  0  0  0  0  0  0  0
   14.3079  -11.7937    0.0000 N   0  0  0  0  0  0  0  0  0  0  0  0
   11.3910  -11.2110    0.0000 C   0  0  0  0  0  0  0  0  0  0  0  0
   18.5386  -12.6521    0.0000 C   0  0  0  0  0  0  0  0  0  0  0  0
   17.1057  -12.5629    0.0000 C   0  0  0  0  0  0  0  0  0  0  0  0
   12.6597  -11.8685    0.0000 C   0  0  2  0  0  0  0  0  0  0  0  0
   12.7192  -13.2931    0.0000 O   0  0  0  0  0  0  0  0  0  0  0  0
   17.7923  -11.0709    0.0000 O   0  0  0  0  0  0  0  0  0  0  0  0
   10.0556  -10.6007    0.0000 C   0  0  0  0  0  0  0  0  0  0  0  0
   11.8950  -13.3294    0.0000 C   0  0  0  0  0  0  0  0  0  0  0  0
   10.5670  -11.2484    0.0000 C   0  0  0  0  0  0  0  0  0  0  0  0
    9.2834  -10.8909    0.0000 C   0  0  0  0  0  0  0  0  0  0  0  0
   19.9721  -12.7333    0.0000 N   0  0  0  0  0  0  0  0  0  0  0  0
   15.5842  -11.0657    0.0000 S   0  0  0  0  0  0  0  0  0  0  0  0
   20.0121  -13.5574    0.0000 C   0  0  0  0  0  0  0  0  0  0  0  0
   20.8082  -13.7739    0.0000 C   0  0  0  0  0  0  0  0  0  0  0  0
   21.2601  -13.0837    0.0000 C   0  0  0  0  0  0  0  0  0  0  0  0
   20.7434  -12.4406    0.0000 C   0  0  0  0  0  0  0  0  0  0  0  0
   20.9600  -11.6446    0.0000 O   0  0  0  0  0  0  0  0  0  0  0  0
 25 11  1  0  0  0  0
 33  3  4  0  0  0  0
 16  7  4  0  0  0  0
 21  3  1  0  0  0  0
 22 12  2  0  0  0  0
 17 26  1  6  0  0  0
 23  1  1  0  0  0  0
 17 25  1  0  0  0  0
  3 15  4  0  0  0  0
 25  2  1  6  0  0  0
 13 24  1  0  0  0  0
 19  8  1  0  0  0  0
  8 10  2  0  0  0  0
 31 16  4  0  0  0  0
 14 11  1  0  0  0  0
 26 29  1  0  0  0  0
 20 21  1  0  0  0  0
 28  4  1  0  0  0  0
 16 18  1  0  0  0  0
 24  6  2  0  0  0  0
 22 30  1  0  0  0  0
 30 28  4  0  0  0  0
  8 27  1  0  0  0  0
 17 20  1  0  0  0  0
  1 32  1  0  0  0  0
 31  9  1  0  0  0  0
 28 31  4  0  0  0  0
  7 30  4  0  0  0  0
 13 19  4  0  0  0  0
  2 22  1  0  0  0  0
 15 13  4  0  0  0  0
 19 33  4  0  0  0  0
  5 23  1  0  0  0  0
 14 21  1  0  0  0  0
 24  5  1  0  0  0  0
 32 34  1  0  0  0  0
 32 37  1  0  0  0  0
 34 35  1  0  0  0  0
 35 36  1  0  0  0  0
 36 37  1  0  0  0  0
 37 38  2  0  0  0  0
M  STY  1   1 DAT
M  SAL   1  1   7
M  SDT   1 MRV_IMPLICIT_H                                        
M  SDD   1     0.0000    0.0000    DR    ALL  0       0  
M  SED   1 IMPL_H1
M  END
> <From> 
www.bindingDB.org

> <BindingDB Reactant_set_id>
50271368

> <Ligand InChI>
InChI=1S/C23H28Cl2N6O6S/c1-11-15(24)16(25)17(27-11)21(34)28-12-5-8-31(10-13(12)37-2)23-29-18(19(38-23)22(35)36)20(33)26-6-9-30-7-3-4-14(30)32/h12-13,27H,3-10H2,1-2H3,(H,26,33)(H,28,34)(H,35,36)/t12-,13+/m1/s1

> <Ligand InChI Key>
HVULSOWCXOBALT-OLZOCXBDSA-N

> <BindingDB MonomerID>
50047220

> <BindingDB Ligand Name>
CHEMBL3314572

> <Target Name Assigned by Curator or DataSource>
DNA Gyrase Subunit B

> <Target Source Organism According to Curator or DataSource>
Staphylococcus aureus

> <Ki (nM)>


> <IC50 (nM)>
<10.0

> <Kd (nM)>


> <EC50 (nM)>


> <kon (M-1-s-1)>


> <koff (s-1)>


> <pH>


> <Temp C>


> <Curation/DataSource>
ChEMBL

> <Article DOI>
10.1021/jm500462x

> <PMID>
24959892

> <PubChem AID>


> <Patent Number>


> <Authors>
Basarab, GS; Hill, PJ; Garner, CE; Hull, K; Green, O; Sherer, BA; Dangel, PB; Manchester, JI; Bist, S; Hauck, S; Zhou, F; Uria-Nickelsen, M; Illingworth, R; Alm, R; Rooney, M; Eakin, AE

> <Institution>
AstraZeneca

> <Link to Ligand in BindingDB>
http://www.bindingdb.org/bind/chemsearch/marvin/MolStructure.jsp?monomerid=50047220

> <Link to Ligand-Target Pair in BindingDB>
http://www.bindingdb.org/jsp/dbsearch/PrimarySearch_ki.jsp?energyterm=kJ/mole&tag=pol&polymerid=2626&target=DNA+Gyrase+Subunit+B&column=ki&startPg=0&Increment=50&submit=Search

> <Link to Ligand-Target Pair in BindingDB>
http://www.bindingdb.org/jsp/dbsearch/PrimarySearch_ki.jsp?energyterm=kJ/mole&tag=r21&monomerid=50047220&enzyme=DNA+Gyrase+Subunit+B&column=ki&startPg=0&Increment=50&submit=Search

> <Ligand HET ID in PDB>


> <PDB ID(s) for Ligand-Target Complex>


> <PubChem CID>
118707657

> <PubChem SID>
313068763

> <ChEBI ID of Ligand>


> <ChEMBL ID of Ligand>


> <DrugBank ID of Ligand>


> <IUPHAR_GRAC ID of Ligand>


> <KEGG ID of Ligand>


> <ZINC ID of Ligand>


> <Number of Protein Chains in Target (>1 implies a multichain complex)>
1

> <BindingDB Target Chain Sequence>
MVTALSDVNNTDNYGAGQIQVLEGLEAVRKRPGMYIGSTSERGLHHLVWEIVDNSIDEALAGYANQIEVVIEKDNWIKVTDNGRGIPVDIQEKMGRPAVEVILTVLHAGGKFGGGGYKVSGGLHGVGSSVVNALSQDLEVYVHRNETIYHQAYKKGVPQFDLKEVGTTDKTGTVIRFKADGEIFTETTVYNYETLQQRIRELAFLNKGIQITLRDERDEENVREDSYHYEGGIKSYVELLNENKEPIHDEPIYIHQSKDDIEVEIAIQYNSGYATNLLTYANNIHTYEGGTHEDGFKRALTRVLNSYGLSSKIMKEEKDRLSGEDTREGMTAIISIKHGDPQFEGQTKTKLGNSEVRQVVDKLFSEHFERFLYENPQVARTVVEKGIMAARARVAAKKAREVTRRKSALDVASLPGKLADCSSKSPEECEIFLVEGDSAGGSTKSGRDSRTQAILPLRGKILNVEKARLDRILNNNEIRQMITAFGTGIGGDFDLAKARYHKIVIMTDADVDGAHIRTLLLTFFYRFMRPLIEAGYVYIAQPPLYKLTQGKQKYYVYNDRELDKLKSELNPTPKWSIARYKGLGEMNADQLWETTMNPEHRALLQVKLEDAIEADQTFEMLMGDVVENRRQFIEDNAVYANLDF

> <PDB ID(s) of Target Chain>


> <UniProt (SwissProt) Recommended Name of Target Chain>
DNA gyrase subunit B

> <UniProt (SwissProt) Entry Name of Target Chain>
GYRB_STAAU

> <UniProt (SwissProt) Primary ID of Target Chain>
P0A0K8

> <UniProt (SwissProt) Secondary ID(s) of Target Chain>
P20832

> <UniProt (SwissProt) Alternative ID(s) of Target Chain>


> <UniProt (TrEMBL) Submitted Name of Target Chain>


> <UniProt (TrEMBL) Entry Name of Target Chain>


> <UniProt (TrEMBL) Primary ID of Target Chain>


> <UniProt (TrEMBL) Secondary ID(s) of Target Chain>


> <UniProt (TrEMBL) Alternative ID(s) of Target Chain>


$$$$

  Mrv0541 03271611212D          

 38 41  0  0  0  0            999 V2000
   19.2814  -12.2811    0.0000 C   0  0  0  0  0  0  0  0  0  0  0  0
   11.8355  -11.9060    0.0000 N   0  0  0  0  0  0  0  0  0  0  0  0
   15.1320  -11.7562    0.0000 C   0  0  0  0  0  0  0  0  0  0  0  0
   10.2768   -9.8059    0.0000 Cl  0  0  0  0  0  0  0  0  0  0  0  0
   17.8433  -12.1936    0.0000 N   0  0  0  0  0  0  0  0  0  0  0  0
   17.0567  -13.3865    0.0000 O   0  0  0  0  0  0  0  0  0  0  0  0
   10.1162  -11.9340    0.0000 N   0  0  0  0  0  0  0  0  0  0  0  0
   17.0242  -10.7699    0.0000 C   0  0  0  0  0  0  0  0  0  0  0  0
    8.5947  -10.4367    0.0000 Cl  0  0  0  0  0  0  0  0  0  0  0  0
   16.9008   -9.9543    0.0000 O   0  0  0  0  0  0  0  0  0  0  0  0
   13.0352  -11.1387    0.0000 C   0  0  0  0  0  0  0  0  0  0  0  0
   11.7707  -10.4785    0.0000 O   0  0  0  0  0  0  0  0  0  0  0  0
   16.4169  -12.1089    0.0000 C   0  0  0  0  0  0  0  0  0  0  0  0
   13.8594  -11.1014    0.0000 C   0  0  0  0  0  0  0  0  0  0  0  0
   15.6447  -12.3991    0.0000 N   0  0  0  0  0  0  0  0  0  0  0  0
    9.3208  -11.7151    0.0000 C   0  0  0  0  0  0  0  0  0  0  0  0
   13.0998  -12.5612    0.0000 C   0  0  1  0  0  0  0  0  0  0  0  0
    8.6761  -12.2298    0.0000 C   0  0  0  0  0  0  0  0  0  0  0  0
   16.3796  -11.2847    0.0000 C   0  0  0  0  0  0  0  0  0  0  0  0
   13.9240  -12.5239    0.0000 C   0  0  0  0  0  0  0  0  0  0  0  0
   14.3079  -11.7937    0.0000 N   0  0  0  0  0  0  0  0  0  0  0  0
   11.3910  -11.2110    0.0000 C   0  0  0  0  0  0  0  0  0  0  0  0
   18.5386  -12.6521    0.0000 C   0  0  0  0  0  0  0  0  0  0  0  0
   17.1057  -12.5629    0.0000 C   0  0  0  0  0  0  0  0  0  0  0  0
   12.6597  -11.8685    0.0000 C   0  0  2  0  0  0  0  0  0  0  0  0
   12.7192  -13.2931    0.0000 O   0  0  0  0  0  0  0  0  0  0  0  0
   17.7923  -11.0709    0.0000 O   0  0  0  0  0  0  0  0  0  0  0  0
   10.0556  -10.6007    0.0000 C   0  0  0  0  0  0  0  0  0  0  0  0
   11.8950  -13.3294    0.0000 C   0  0  0  0  0  0  0  0  0  0  0  0
   10.5670  -11.2484    0.0000 C   0  0  0  0  0  0  0  0  0  0  0  0
    9.2834  -10.8909    0.0000 C   0  0  0  0  0  0  0  0  0  0  0  0
   19.9721  -12.7333    0.0000 N   0  0  0  0  0  0  0  0  0  0  0  0
   15.5842  -11.0657    0.0000 S   0  0  0  0  0  0  0  0  0  0  0  0
   19.9258  -13.5570    0.0000 C   0  0  0  0  0  0  0  0  0  0  0  0
   20.6160  -14.0090    0.0000 C   0  0  0  0  0  0  0  0  0  0  0  0
   21.3525  -13.6373    0.0000 O   0  0  0  0  0  0  0  0  0  0  0  0
   21.3988  -12.8136    0.0000 C   0  0  0  0  0  0  0  0  0  0  0  0
   20.7086  -12.3616    0.0000 C   0  0  0  0  0  0  0  0  0  0  0  0
 25 11  1  0  0  0  0
 33  3  4  0  0  0  0
 16  7  4  0  0  0  0
 21  3  1  0  0  0  0
 22 12  2  0  0  0  0
 17 26  1  6  0  0  0
 23  1  1  0  0  0  0
 17 25  1  0  0  0  0
  3 15  4  0  0  0  0
 25  2  1  6  0  0  0
 13 24  1  0  0  0  0
 19  8  1  0  0  0  0
  8 10  2  0  0  0  0
 31 16  4  0  0  0  0
 14 11  1  0  0  0  0
 26 29  1  0  0  0  0
 20 21  1  0  0  0  0
 28  4  1  0  0  0  0
 16 18  1  0  0  0  0
 24  6  2  0  0  0  0
 22 30  1  0  0  0  0
 30 28  4  0  0  0  0
  8 27  1  0  0  0  0
 17 20  1  0  0  0  0
  1 32  1  0  0  0  0
 31  9  1  0  0  0  0
 28 31  4  0  0  0  0
  7 30  4  0  0  0  0
 13 19  4  0  0  0  0
  2 22  1  0  0  0  0
 15 13  4  0  0  0  0
 19 33  4  0  0  0  0
  5 23  1  0  0  0  0
 14 21  1  0  0  0  0
 24  5  1  0  0  0  0
 32 34  1  0  0  0  0
 32 38  1  0  0  0  0
 34 35  1  0  0  0  0
 35 36  1  0  0  0  0
 36 37  1  0  0  0  0
 37 38  1  0  0  0  0
M  STY  1   1 DAT
M  SAL   1  1   7
M  SDT   1 MRV_IMPLICIT_H                                        
M  SDD   1     0.0000    0.0000    DR    ALL  0       0  
M  SED   1 IMPL_H1
M  END
> <From> 
www.bindingDB.org

> <BindingDB Reactant_set_id>
50271369

> <Ligand InChI>
InChI=1S/C23H30Cl2N6O6S/c1-12-15(24)16(25)17(27-12)21(33)28-13-3-5-31(11-14(13)36-2)23-29-18(19(38-23)22(34)35)20(32)26-4-6-30-7-9-37-10-8-30/h13-14,27H,3-11H2,1-2H3,(H,26,32)(H,28,33)(H,34,35)/t13-,14+/m1/s1

> <Ligand InChI Key>
WTCOTJYXQLBELV-KGLIPLIRSA-N

> <BindingDB MonomerID>
50047221

> <BindingDB Ligand Name>
CHEMBL3314573

> <Target Name Assigned by Curator or DataSource>
DNA Gyrase Subunit B

> <Target Source Organism According to Curator or DataSource>
Staphylococcus aureus

> <Ki (nM)>


> <IC50 (nM)>
<10.0

> <Kd (nM)>


> <EC50 (nM)>


> <kon (M-1-s-1)>


> <koff (s-1)>


> <pH>


> <Temp C>


> <Curation/DataSource>
ChEMBL

> <Article DOI>
10.1021/jm500462x

> <PMID>
24959892

> <PubChem AID>


> <Patent Number>


> <Authors>
Basarab, GS; Hill, PJ; Garner, CE; Hull, K; Green, O; Sherer, BA; Dangel, PB; Manchester, JI; Bist, S; Hauck, S; Zhou, F; Uria-Nickelsen, M; Illingworth, R; Alm, R; Rooney, M; Eakin, AE

> <Institution>
AstraZeneca

> <Link to Ligand in BindingDB>
http://www.bindingdb.org/bind/chemsearch/marvin/MolStructure.jsp?monomerid=50047221

> <Link to Ligand-Target Pair in BindingDB>
http://www.bindingdb.org/jsp/dbsearch/PrimarySearch_ki.jsp?energyterm=kJ/mole&tag=pol&polymerid=2626&target=DNA+Gyrase+Subunit+B&column=ki&startPg=0&Increment=50&submit=Search

> <Link to Ligand-Target Pair in BindingDB>
http://www.bindingdb.org/jsp/dbsearch/PrimarySearch_ki.jsp?energyterm=kJ/mole&tag=r21&monomerid=50047221&enzyme=DNA+Gyrase+Subunit+B&column=ki&startPg=0&Increment=50&submit=Search

> <Ligand HET ID in PDB>


> <PDB ID(s) for Ligand-Target Complex>


> <PubChem CID>
89699181

> <PubChem SID>
313068764

> <ChEBI ID of Ligand>


> <ChEMBL ID of Ligand>


> <DrugBank ID of Ligand>


> <IUPHAR_GRAC ID of Ligand>


> <KEGG ID of Ligand>


> <ZINC ID of Ligand>


> <Number of Protein Chains in Target (>1 implies a multichain complex)>
1

> <BindingDB Target Chain Sequence>
MVTALSDVNNTDNYGAGQIQVLEGLEAVRKRPGMYIGSTSERGLHHLVWEIVDNSIDEALAGYANQIEVVIEKDNWIKVTDNGRGIPVDIQEKMGRPAVEVILTVLHAGGKFGGGGYKVSGGLHGVGSSVVNALSQDLEVYVHRNETIYHQAYKKGVPQFDLKEVGTTDKTGTVIRFKADGEIFTETTVYNYETLQQRIRELAFLNKGIQITLRDERDEENVREDSYHYEGGIKSYVELLNENKEPIHDEPIYIHQSKDDIEVEIAIQYNSGYATNLLTYANNIHTYEGGTHEDGFKRALTRVLNSYGLSSKIMKEEKDRLSGEDTREGMTAIISIKHGDPQFEGQTKTKLGNSEVRQVVDKLFSEHFERFLYENPQVARTVVEKGIMAARARVAAKKAREVTRRKSALDVASLPGKLADCSSKSPEECEIFLVEGDSAGGSTKSGRDSRTQAILPLRGKILNVEKARLDRILNNNEIRQMITAFGTGIGGDFDLAKARYHKIVIMTDADVDGAHIRTLLLTFFYRFMRPLIEAGYVYIAQPPLYKLTQGKQKYYVYNDRELDKLKSELNPTPKWSIARYKGLGEMNADQLWETTMNPEHRALLQVKLEDAIEADQTFEMLMGDVVENRRQFIEDNAVYANLDF

> <PDB ID(s) of Target Chain>


> <UniProt (SwissProt) Recommended Name of Target Chain>
DNA gyrase subunit B

> <UniProt (SwissProt) Entry Name of Target Chain>
GYRB_STAAU

> <UniProt (SwissProt) Primary ID of Target Chain>
P0A0K8

> <UniProt (SwissProt) Secondary ID(s) of Target Chain>
P20832

> <UniProt (SwissProt) Alternative ID(s) of Target Chain>


> <UniProt (TrEMBL) Submitted Name of Target Chain>


> <UniProt (TrEMBL) Entry Name of Target Chain>


> <UniProt (TrEMBL) Primary ID of Target Chain>


> <UniProt (TrEMBL) Secondary ID(s) of Target Chain>


> <UniProt (TrEMBL) Alternative ID(s) of Target Chain>


$$$$

  SciTegic02271514412D

 36 39  0  0  0  0            999 V2000
   11.8355  -11.9060    0.0000 N   0  0
   15.1320  -11.7562    0.0000 C   0  0
   10.2768   -9.8059    0.0000 Cl  0  0
   17.8433  -12.1936    0.0000 N   0  0
   17.0567  -13.3865    0.0000 O   0  0
   10.1162  -11.9340    0.0000 N   0  0
   17.0242  -10.7699    0.0000 C   0  0
    8.5947  -10.4367    0.0000 Cl  0  0
   16.9008   -9.9543    0.0000 O   0  0
   13.0352  -11.1387    0.0000 C   0  0
   11.7707  -10.4785    0.0000 O   0  0
   16.4169  -12.1089    0.0000 C   0  0
   13.8594  -11.1014    0.0000 C   0  0
   15.6447  -12.3991    0.0000 N   0  0
    9.3208  -11.7151    0.0000 C   0  0
   13.0998  -12.5612    0.0000 C   0  0  1  0  0  0
    8.6761  -12.2298    0.0000 C   0  0
   16.3796  -11.2847    0.0000 C   0  0
   13.9240  -12.5239    0.0000 C   0  0
   14.3079  -11.7937    0.0000 N   0  0
   11.3910  -11.2110    0.0000 C   0  0
   18.5386  -12.6521    0.0000 N   0  0
   17.1057  -12.5629    0.0000 C   0  0
   12.6597  -11.8685    0.0000 C   0  0  2  0  0  0
   12.7192  -13.2931    0.0000 O   0  0
   17.7923  -11.0709    0.0000 O   0  0
   10.0556  -10.6007    0.0000 C   0  0
   11.8950  -13.3294    0.0000 C   0  0
   10.5670  -11.2484    0.0000 C   0  0
    9.2834  -10.8909    0.0000 C   0  0
   15.5842  -11.0657    0.0000 S   0  0
   18.4897  -13.4756    0.0000 C   0  0
   19.1784  -13.9298    0.0000 C   0  0
   19.9161  -13.5604    0.0000 O   0  0
   19.9651  -12.7369    0.0000 C   0  0
   19.2763  -12.2827    0.0000 C   0  0
 10 24  1  0
 31  2  1  0
 15  6  1  0
 20  2  1  0
 21 11  2  0
 16 25  1  6
 24 16  1  0
  2 14  2  0
 24  1  1  6
 12 23  1  0
 18  7  1  0
  7  9  2  0
 30 15  2  0
 13 10  1  0
 25 28  1  0
 19 20  1  0
 27  3  1  0
 15 17  1  0
 23  5  2  0
 21 29  1  0
 29 27  2  0
  7 26  1  0
 16 19  1  0
 30  8  1  0
 27 30  1  0
  6 29  1  0
 12 18  2  0
  1 21  1  0
 14 12  1  0
 18 31  1  0
  4 22  1  0
 13 20  1  0
 23  4  1  0
 22 32  1  0
 22 36  1  0
 32 33  1  0
 33 34  1  0
 34 35  1  0
 35 36  1  0
M  END
> <From> 
www.bindingDB.org

> <BindingDB Reactant_set_id>
50271370

> <Ligand InChI>
InChI=1S/C21H26Cl2N6O6S/c1-10-13(22)14(23)15(24-10)18(30)25-11-3-4-28(9-12(11)34-2)21-26-16(17(36-21)20(32)33)19(31)27-29-5-7-35-8-6-29/h11-12,24H,3-9H2,1-2H3,(H,25,30)(H,27,31)(H,32,33)/t11-,12+/m1/s1

> <Ligand InChI Key>
SJUMWFCISJATFN-NEPJUHHUSA-N

> <BindingDB MonomerID>
50047287

> <BindingDB Ligand Name>
CHEMBL3314574

> <Target Name Assigned by Curator or DataSource>
DNA Gyrase Subunit B

> <Target Source Organism According to Curator or DataSource>
Staphylococcus aureus

> <Ki (nM)>


> <IC50 (nM)>
<10.0

> <Kd (nM)>


> <EC50 (nM)>


> <kon (M-1-s-1)>


> <koff (s-1)>


> <pH>


> <Temp C>


> <Curation/DataSource>
ChEMBL

> <Article DOI>
10.1021/jm500462x

> <PMID>
24959892

> <PubChem AID>


> <Patent Number>


> <Authors>
Basarab, GS; Hill, PJ; Garner, CE; Hull, K; Green, O; Sherer, BA; Dangel, PB; Manchester, JI; Bist, S; Hauck, S; Zhou, F; Uria-Nickelsen, M; Illingworth, R; Alm, R; Rooney, M; Eakin, AE

> <Institution>
AstraZeneca

> <Link to Ligand in BindingDB>
http://www.bindingdb.org/bind/chemsearch/marvin/MolStructure.jsp?monomerid=50047287

> <Link to Ligand-Target Pair in BindingDB>
http://www.bindingdb.org/jsp/dbsearch/PrimarySearch_ki.jsp?energyterm=kJ/mole&tag=pol&polymerid=2626&target=DNA+Gyrase+Subunit+B&column=ki&startPg=0&Increment=50&submit=Search

> <Link to Ligand-Target Pair in BindingDB>
http://www.bindingdb.org/jsp/dbsearch/PrimarySearch_ki.jsp?energyterm=kJ/mole&tag=r21&monomerid=50047287&enzyme=DNA+Gyrase+Subunit+B&column=ki&startPg=0&Increment=50&submit=Search

> <Ligand HET ID in PDB>


> <PDB ID(s) for Ligand-Target Complex>


> <PubChem CID>
118707658

> <PubChem SID>
103977967

> <ChEBI ID of Ligand>


> <ChEMBL ID of Ligand>
CHEMBL32237

> <DrugBank ID of Ligand>


> <IUPHAR_GRAC ID of Ligand>


> <KEGG ID of Ligand>


> <ZINC ID of Ligand>
ZINC36190117

> <Number of Protein Chains in Target (>1 implies a multichain complex)>
1

> <BindingDB Target Chain Sequence>
MVTALSDVNNTDNYGAGQIQVLEGLEAVRKRPGMYIGSTSERGLHHLVWEIVDNSIDEALAGYANQIEVVIEKDNWIKVTDNGRGIPVDIQEKMGRPAVEVILTVLHAGGKFGGGGYKVSGGLHGVGSSVVNALSQDLEVYVHRNETIYHQAYKKGVPQFDLKEVGTTDKTGTVIRFKADGEIFTETTVYNYETLQQRIRELAFLNKGIQITLRDERDEENVREDSYHYEGGIKSYVELLNENKEPIHDEPIYIHQSKDDIEVEIAIQYNSGYATNLLTYANNIHTYEGGTHEDGFKRALTRVLNSYGLSSKIMKEEKDRLSGEDTREGMTAIISIKHGDPQFEGQTKTKLGNSEVRQVVDKLFSEHFERFLYENPQVARTVVEKGIMAARARVAAKKAREVTRRKSALDVASLPGKLADCSSKSPEECEIFLVEGDSAGGSTKSGRDSRTQAILPLRGKILNVEKARLDRILNNNEIRQMITAFGTGIGGDFDLAKARYHKIVIMTDADVDGAHIRTLLLTFFYRFMRPLIEAGYVYIAQPPLYKLTQGKQKYYVYNDRELDKLKSELNPTPKWSIARYKGLGEMNADQLWETTMNPEHRALLQVKLEDAIEADQTFEMLMGDVVENRRQFIEDNAVYANLDF

> <PDB ID(s) of Target Chain>


> <UniProt (SwissProt) Recommended Name of Target Chain>
DNA gyrase subunit B

> <UniProt (SwissProt) Entry Name of Target Chain>
GYRB_STAAU

> <UniProt (SwissProt) Primary ID of Target Chain>
P0A0K8

> <UniProt (SwissProt) Secondary ID(s) of Target Chain>
P20832

> <UniProt (SwissProt) Alternative ID(s) of Target Chain>


> <UniProt (TrEMBL) Submitted Name of Target Chain>


> <UniProt (TrEMBL) Entry Name of Target Chain>


> <UniProt (TrEMBL) Primary ID of Target Chain>


> <UniProt (TrEMBL) Secondary ID(s) of Target Chain>


> <UniProt (TrEMBL) Alternative ID(s) of Target Chain>


$$$$

  SciTegic02271514412D

 33 36  0  0  0  0            999 V2000
   11.8355  -11.9060    0.0000 N   0  0
   15.1320  -11.7562    0.0000 C   0  0
   10.2768   -9.8059    0.0000 Cl  0  0
   10.1162  -11.9340    0.0000 N   0  0
   17.0242  -10.7699    0.0000 C   0  0
    8.5947  -10.4367    0.0000 Cl  0  0
   16.9008   -9.9543    0.0000 O   0  0
   13.0352  -11.1387    0.0000 C   0  0
   11.7707  -10.4785    0.0000 O   0  0
   16.4169  -12.1089    0.0000 C   0  0
   13.8594  -11.1014    0.0000 C   0  0
   15.6447  -12.3991    0.0000 N   0  0
    9.3208  -11.7151    0.0000 C   0  0
   13.0998  -12.5612    0.0000 C   0  0  1  0  0  0
    8.6761  -12.2298    0.0000 C   0  0
   16.3796  -11.2847    0.0000 C   0  0
   13.9240  -12.5239    0.0000 C   0  0
   14.3079  -11.7937    0.0000 N   0  0
   11.3910  -11.2110    0.0000 C   0  0
   17.1057  -12.5629    0.0000 C   0  0
   12.6597  -11.8685    0.0000 C   0  0  2  0  0  0
   12.7192  -13.2931    0.0000 O   0  0
   17.7923  -11.0709    0.0000 O   0  0
   10.0556  -10.6007    0.0000 C   0  0
   11.8950  -13.3294    0.0000 C   0  0
   10.5670  -11.2484    0.0000 C   0  0
    9.2834  -10.8909    0.0000 C   0  0
   15.5842  -11.0657    0.0000 S   0  0
   17.0569  -13.3865    0.0000 C   0  0
   17.7457  -13.8406    0.0000 N   0  0
   18.4833  -13.4711    0.0000 C   0  0
   18.5322  -12.6476    0.0000 C   0  0
   17.8433  -12.1935    0.0000 N   0  0
  8 21  1  0
 28  2  1  0
 13  4  1  0
 18  2  1  0
 19  9  2  0
 14 22  1  6
 21 14  1  0
  2 12  2  0
 21  1  1  6
 10 20  1  0
 16  5  1  0
  5  7  2  0
 27 13  2  0
 11  8  1  0
 22 25  1  0
 17 18  1  0
 24  3  1  0
 13 15  1  0
 19 26  1  0
 26 24  2  0
  5 23  1  0
 14 17  1  0
 27  6  1  0
 24 27  1  0
  4 26  1  0
 10 16  2  0
  1 19  1  0
 12 10  1  0
 16 28  1  0
 11 18  1  0
 20 29  1  0
 20 33  2  0
 29 30  2  0
 30 31  1  0
 31 32  2  0
 32 33  1  0
M  END
> <From> 
www.bindingDB.org

> <BindingDB Reactant_set_id>
50271371

> <Ligand InChI>
InChI=1S/C20H20Cl2N6O4S/c1-9-13(21)14(22)16(25-9)18(29)26-10-3-6-28(8-12(10)32-2)20-27-15(17(33-20)19(30)31)11-7-23-4-5-24-11/h4-5,7,10,12,25H,3,6,8H2,1-2H3,(H,26,29)(H,30,31)/t10-,12+/m1/s1

> <Ligand InChI Key>
XHLRICGKGAEKEB-PWSUYJOCSA-N

> <BindingDB MonomerID>
50047308

> <BindingDB Ligand Name>
CHEMBL3314575

> <Target Name Assigned by Curator or DataSource>
DNA Gyrase Subunit B

> <Target Source Organism According to Curator or DataSource>
Staphylococcus aureus

> <Ki (nM)>


> <IC50 (nM)>
<10.0

> <Kd (nM)>


> <EC50 (nM)>


> <kon (M-1-s-1)>


> <koff (s-1)>


> <pH>


> <Temp C>


> <Curation/DataSource>
ChEMBL

> <Article DOI>
10.1021/jm500462x

> <PMID>
24959892

> <PubChem AID>


> <Patent Number>


> <Authors>
Basarab, GS; Hill, PJ; Garner, CE; Hull, K; Green, O; Sherer, BA; Dangel, PB; Manchester, JI; Bist, S; Hauck, S; Zhou, F; Uria-Nickelsen, M; Illingworth, R; Alm, R; Rooney, M; Eakin, AE

> <Institution>
AstraZeneca

> <Link to Ligand in BindingDB>
http://www.bindingdb.org/bind/chemsearch/marvin/MolStructure.jsp?monomerid=50047308

> <Link to Ligand-Target Pair in BindingDB>
http://www.bindingdb.org/jsp/dbsearch/PrimarySearch_ki.jsp?energyterm=kJ/mole&tag=pol&polymerid=2626&target=DNA+Gyrase+Subunit+B&column=ki&startPg=0&Increment=50&submit=Search

> <Link to Ligand-Target Pair in BindingDB>
http://www.bindingdb.org/jsp/dbsearch/PrimarySearch_ki.jsp?energyterm=kJ/mole&tag=r21&monomerid=50047308&enzyme=DNA+Gyrase+Subunit+B&column=ki&startPg=0&Increment=50&submit=Search

> <Ligand HET ID in PDB>


> <PDB ID(s) for Ligand-Target Complex>


> <PubChem CID>
25223222

> <PubChem SID>
103977988

> <ChEBI ID of Ligand>


> <ChEMBL ID of Ligand>
CHEMBL30535

> <DrugBank ID of Ligand>


> <IUPHAR_GRAC ID of Ligand>


> <KEGG ID of Ligand>


> <ZINC ID of Ligand>
ZINC03922473

> <Number of Protein Chains in Target (>1 implies a multichain complex)>
1

> <BindingDB Target Chain Sequence>
MVTALSDVNNTDNYGAGQIQVLEGLEAVRKRPGMYIGSTSERGLHHLVWEIVDNSIDEALAGYANQIEVVIEKDNWIKVTDNGRGIPVDIQEKMGRPAVEVILTVLHAGGKFGGGGYKVSGGLHGVGSSVVNALSQDLEVYVHRNETIYHQAYKKGVPQFDLKEVGTTDKTGTVIRFKADGEIFTETTVYNYETLQQRIRELAFLNKGIQITLRDERDEENVREDSYHYEGGIKSYVELLNENKEPIHDEPIYIHQSKDDIEVEIAIQYNSGYATNLLTYANNIHTYEGGTHEDGFKRALTRVLNSYGLSSKIMKEEKDRLSGEDTREGMTAIISIKHGDPQFEGQTKTKLGNSEVRQVVDKLFSEHFERFLYENPQVARTVVEKGIMAARARVAAKKAREVTRRKSALDVASLPGKLADCSSKSPEECEIFLVEGDSAGGSTKSGRDSRTQAILPLRGKILNVEKARLDRILNNNEIRQMITAFGTGIGGDFDLAKARYHKIVIMTDADVDGAHIRTLLLTFFYRFMRPLIEAGYVYIAQPPLYKLTQGKQKYYVYNDRELDKLKSELNPTPKWSIARYKGLGEMNADQLWETTMNPEHRALLQVKLEDAIEADQTFEMLMGDVVENRRQFIEDNAVYANLDF

> <PDB ID(s) of Target Chain>


> <UniProt (SwissProt) Recommended Name of Target Chain>
DNA gyrase subunit B

> <UniProt (SwissProt) Entry Name of Target Chain>
GYRB_STAAU

> <UniProt (SwissProt) Primary ID of Target Chain>
P0A0K8

> <UniProt (SwissProt) Secondary ID(s) of Target Chain>
P20832

> <UniProt (SwissProt) Alternative ID(s) of Target Chain>


> <UniProt (TrEMBL) Submitted Name of Target Chain>


> <UniProt (TrEMBL) Entry Name of Target Chain>


> <UniProt (TrEMBL) Primary ID of Target Chain>


> <UniProt (TrEMBL) Secondary ID(s) of Target Chain>


> <UniProt (TrEMBL) Alternative ID(s) of Target Chain>


$$$$

  SciTegic02271514412D

 33 36  0  0  0  0            999 V2000
   11.8355  -11.9060    0.0000 N   0  0
   15.1320  -11.7562    0.0000 C   0  0
   10.2768   -9.8059    0.0000 Cl  0  0
   10.1162  -11.9340    0.0000 N   0  0
   17.0242  -10.7699    0.0000 C   0  0
    8.5947  -10.4367    0.0000 Cl  0  0
   16.9008   -9.9543    0.0000 O   0  0
   13.0352  -11.1387    0.0000 C   0  0
   11.7707  -10.4785    0.0000 O   0  0
   16.4169  -12.1089    0.0000 C   0  0
   13.8594  -11.1014    0.0000 C   0  0
   15.6447  -12.3991    0.0000 N   0  0
    9.3208  -11.7151    0.0000 C   0  0
   13.0998  -12.5612    0.0000 C   0  0  1  0  0  0
    8.6761  -12.2298    0.0000 C   0  0
   16.3796  -11.2847    0.0000 C   0  0
   13.9240  -12.5239    0.0000 C   0  0
   14.3079  -11.7937    0.0000 N   0  0
   11.3910  -11.2110    0.0000 C   0  0
   17.1057  -12.5629    0.0000 C   0  0
   12.6597  -11.8685    0.0000 C   0  0  2  0  0  0
   12.7192  -13.2931    0.0000 O   0  0
   17.7923  -11.0709    0.0000 O   0  0
   10.0556  -10.6007    0.0000 C   0  0
   11.8950  -13.3294    0.0000 C   0  0
   10.5670  -11.2484    0.0000 C   0  0
    9.2834  -10.8909    0.0000 C   0  0
   15.5842  -11.0657    0.0000 S   0  0
   17.1433  -13.3870    0.0000 N   0  0
   17.9387  -13.6060    0.0000 N   0  0
   18.3927  -12.9171    0.0000 C   0  0
   17.8779  -12.2725    0.0000 N   0  0
   16.4986  -13.9019    0.0000 C   0  0
  8 21  1  0
 28  2  1  0
 13  4  1  0
 18  2  1  0
 19  9  2  0
 14 22  1  6
 21 14  1  0
  2 12  2  0
 21  1  1  6
 10 20  1  0
 16  5  1  0
  5  7  2  0
 27 13  2  0
 11  8  1  0
 22 25  1  0
 17 18  1  0
 24  3  1  0
 13 15  1  0
 19 26  1  0
 26 24  2  0
  5 23  1  0
 14 17  1  0
 27  6  1  0
 24 27  1  0
  4 26  1  0
 10 16  2  0
  1 19  1  0
 12 10  1  0
 16 28  1  0
 11 18  1  0
 20 29  1  0
 20 32  2  0
 29 30  1  0
 30 31  2  0
 31 32  1  0
 29 33  1  0
M  END
> <From> 
www.bindingDB.org

> <BindingDB Reactant_set_id>
50271372

> <Ligand InChI>
InChI=1S/C19H21Cl2N7O4S/c1-8-11(20)12(21)13(24-8)17(29)25-9-4-5-28(6-10(9)32-3)19-26-14(15(33-19)18(30)31)16-22-7-23-27(16)2/h7,9-10,24H,4-6H2,1-3H3,(H,25,29)(H,30,31)/t9-,10+/m1/s1

> <Ligand InChI Key>
BMQFAHOPSKEIHS-ZJUUUORDSA-N

> <BindingDB MonomerID>
50047309

> <BindingDB Ligand Name>
CHEMBL3314576

> <Target Name Assigned by Curator or DataSource>
DNA Gyrase Subunit B

> <Target Source Organism According to Curator or DataSource>
Staphylococcus aureus

> <Ki (nM)>


> <IC50 (nM)>
<10.0

> <Kd (nM)>


> <EC50 (nM)>


> <kon (M-1-s-1)>


> <koff (s-1)>


> <pH>


> <Temp C>


> <Curation/DataSource>
ChEMBL

> <Article DOI>
10.1021/jm500462x

> <PMID>
24959892

> <PubChem AID>


> <Patent Number>


> <Authors>
Basarab, GS; Hill, PJ; Garner, CE; Hull, K; Green, O; Sherer, BA; Dangel, PB; Manchester, JI; Bist, S; Hauck, S; Zhou, F; Uria-Nickelsen, M; Illingworth, R; Alm, R; Rooney, M; Eakin, AE

> <Institution>
AstraZeneca

> <Link to Ligand in BindingDB>
http://www.bindingdb.org/bind/chemsearch/marvin/MolStructure.jsp?monomerid=50047309

> <Link to Ligand-Target Pair in BindingDB>
http://www.bindingdb.org/jsp/dbsearch/PrimarySearch_ki.jsp?energyterm=kJ/mole&tag=pol&polymerid=2626&target=DNA+Gyrase+Subunit+B&column=ki&startPg=0&Increment=50&submit=Search

> <Link to Ligand-Target Pair in BindingDB>
http://www.bindingdb.org/jsp/dbsearch/PrimarySearch_ki.jsp?energyterm=kJ/mole&tag=r21&monomerid=50047309&enzyme=DNA+Gyrase+Subunit+B&column=ki&startPg=0&Increment=50&submit=Search

> <Ligand HET ID in PDB>


> <PDB ID(s) for Ligand-Target Complex>


> <PubChem CID>
25223515

> <PubChem SID>
103977989

> <ChEBI ID of Ligand>


> <ChEMBL ID of Ligand>
CHEMBL33072

> <DrugBank ID of Ligand>


> <IUPHAR_GRAC ID of Ligand>


> <KEGG ID of Ligand>


> <ZINC ID of Ligand>
ZINC03787715

> <Number of Protein Chains in Target (>1 implies a multichain complex)>
1

> <BindingDB Target Chain Sequence>
MVTALSDVNNTDNYGAGQIQVLEGLEAVRKRPGMYIGSTSERGLHHLVWEIVDNSIDEALAGYANQIEVVIEKDNWIKVTDNGRGIPVDIQEKMGRPAVEVILTVLHAGGKFGGGGYKVSGGLHGVGSSVVNALSQDLEVYVHRNETIYHQAYKKGVPQFDLKEVGTTDKTGTVIRFKADGEIFTETTVYNYETLQQRIRELAFLNKGIQITLRDERDEENVREDSYHYEGGIKSYVELLNENKEPIHDEPIYIHQSKDDIEVEIAIQYNSGYATNLLTYANNIHTYEGGTHEDGFKRALTRVLNSYGLSSKIMKEEKDRLSGEDTREGMTAIISIKHGDPQFEGQTKTKLGNSEVRQVVDKLFSEHFERFLYENPQVARTVVEKGIMAARARVAAKKAREVTRRKSALDVASLPGKLADCSSKSPEECEIFLVEGDSAGGSTKSGRDSRTQAILPLRGKILNVEKARLDRILNNNEIRQMITAFGTGIGGDFDLAKARYHKIVIMTDADVDGAHIRTLLLTFFYRFMRPLIEAGYVYIAQPPLYKLTQGKQKYYVYNDRELDKLKSELNPTPKWSIARYKGLGEMNADQLWETTMNPEHRALLQVKLEDAIEADQTFEMLMGDVVENRRQFIEDNAVYANLDF

> <PDB ID(s) of Target Chain>


> <UniProt (SwissProt) Recommended Name of Target Chain>
DNA gyrase subunit B

> <UniProt (SwissProt) Entry Name of Target Chain>
GYRB_STAAU

> <UniProt (SwissProt) Primary ID of Target Chain>
P0A0K8

> <UniProt (SwissProt) Secondary ID(s) of Target Chain>
P20832

> <UniProt (SwissProt) Alternative ID(s) of Target Chain>


> <UniProt (TrEMBL) Submitted Name of Target Chain>


> <UniProt (TrEMBL) Entry Name of Target Chain>


> <UniProt (TrEMBL) Primary ID of Target Chain>


> <UniProt (TrEMBL) Secondary ID(s) of Target Chain>


> <UniProt (TrEMBL) Alternative ID(s) of Target Chain>


$$$$

  SciTegic02271514412D

 33 36  0  0  0  0            999 V2000
   20.6803   -6.4200    0.0000 N   0  0
   21.5044   -6.3825    0.0000 C   0  0
   22.7893   -6.7352    0.0000 C   0  0
   14.9671   -5.0630    0.0000 Cl  0  0
   22.7520   -5.9110    0.0000 C   0  0
   16.4886   -6.5603    0.0000 N   0  0
   15.0485   -6.8561    0.0000 C   0  0
   17.7634   -5.8373    0.0000 C   0  0
   24.1647   -5.6972    0.0000 O   0  0
   19.4076   -5.7650    0.0000 C   0  0
   15.6558   -5.5172    0.0000 C   0  0
   21.9566   -5.6920    0.0000 S   0  0
   23.2732   -4.5806    0.0000 O   0  0
   22.0171   -7.0254    0.0000 N   0  0
   20.2964   -7.1502    0.0000 C   0  0
   18.2674   -7.9557    0.0000 C   0  0
   24.2157   -6.8198    0.0000 N   0  0
   16.6492   -4.4322    0.0000 Cl  0  0
   19.4722   -7.1875    0.0000 C   0  0  2  0  0  0
   19.0916   -7.9194    0.0000 O   0  0
   24.1181   -8.4669    0.0000 C   0  0
   23.4293   -8.0128    0.0000 N   0  0
   18.2079   -6.5323    0.0000 N   0  0
   23.4781   -7.1892    0.0000 C   0  0
   16.4280   -5.2270    0.0000 C   0  0
   24.9046   -7.2739    0.0000 C   0  0
   15.6932   -6.3414    0.0000 C   0  0
   23.3966   -5.3962    0.0000 C   0  0
   24.8557   -8.0974    0.0000 C   0  0
   19.0321   -6.4948    0.0000 C   0  0  2  0  0  0
   20.2318   -5.7277    0.0000 C   0  0
   18.1431   -5.1048    0.0000 O   0  0
   16.9394   -5.8747    0.0000 C   0  0
 25 18  1  0
 29 26  2  0
 20 16  1  0
 24 22  1  0
 14  3  1  0
 31  1  1  0
 24 17  2  0
  8 33  1  0
 11  4  1  0
 28 13  2  0
 25 11  1  0
  2 14  2  0
 30 19  1  0
 33 25  2  0
  5 28  1  0
  1  2  1  0
 19 20  1  6
 19 15  1  0
 27  6  1  0
 12  2  1  0
 28  9  1  0
 31 10  1  0
  8 32  2  0
 11 27  2  0
  3 24  1  0
  5 12  1  0
 21 29  1  0
  6 33  1  0
  3  5  2  0
 10 30  1  0
 22 21  2  0
 27  7  1  0
 30 23  1  6
 23  8  1  0
 26 17  1  0
 15  1  1  0
M  END
> <From> 
www.bindingDB.org

> <BindingDB Reactant_set_id>
50271373

> <Ligand InChI>
InChI=1S/C20H20Cl2N6O4S/c1-9-12(21)13(22)14(25-9)18(29)26-10-4-7-28(8-11(10)32-2)20-27-15(16(33-20)19(30)31)17-23-5-3-6-24-17/h3,5-6,10-11,25H,4,7-8H2,1-2H3,(H,26,29)(H,30,31)/t10-,11+/m1/s1

> <Ligand InChI Key>
OSHOLVCAJUAKIU-MNOVXSKESA-N

> <BindingDB MonomerID>
50047310

> <BindingDB Ligand Name>
CHEMBL3314577

> <Target Name Assigned by Curator or DataSource>
DNA Gyrase Subunit B

> <Target Source Organism According to Curator or DataSource>
Staphylococcus aureus

> <Ki (nM)>


> <IC50 (nM)>
<10.0

> <Kd (nM)>


> <EC50 (nM)>


> <kon (M-1-s-1)>


> <koff (s-1)>


> <pH>


> <Temp C>


> <Curation/DataSource>
ChEMBL

> <Article DOI>
10.1021/jm500462x

> <PMID>
24959892

> <PubChem AID>


> <Patent Number>


> <Authors>
Basarab, GS; Hill, PJ; Garner, CE; Hull, K; Green, O; Sherer, BA; Dangel, PB; Manchester, JI; Bist, S; Hauck, S; Zhou, F; Uria-Nickelsen, M; Illingworth, R; Alm, R; Rooney, M; Eakin, AE

> <Institution>
AstraZeneca

> <Link to Ligand in BindingDB>
http://www.bindingdb.org/bind/chemsearch/marvin/MolStructure.jsp?monomerid=50047310

> <Link to Ligand-Target Pair in BindingDB>
http://www.bindingdb.org/jsp/dbsearch/PrimarySearch_ki.jsp?energyterm=kJ/mole&tag=pol&polymerid=2626&target=DNA+Gyrase+Subunit+B&column=ki&startPg=0&Increment=50&submit=Search

> <Link to Ligand-Target Pair in BindingDB>
http://www.bindingdb.org/jsp/dbsearch/PrimarySearch_ki.jsp?energyterm=kJ/mole&tag=r21&monomerid=50047310&enzyme=DNA+Gyrase+Subunit+B&column=ki&startPg=0&Increment=50&submit=Search

> <Ligand HET ID in PDB>


> <PDB ID(s) for Ligand-Target Complex>


> <PubChem CID>
25223021

> <PubChem SID>
103977990

> <ChEBI ID of Ligand>


> <ChEMBL ID of Ligand>
CHEMBL31082

> <DrugBank ID of Ligand>


> <IUPHAR_GRAC ID of Ligand>


> <KEGG ID of Ligand>


> <ZINC ID of Ligand>
ZINC29216458

> <Number of Protein Chains in Target (>1 implies a multichain complex)>
1

> <BindingDB Target Chain Sequence>
MVTALSDVNNTDNYGAGQIQVLEGLEAVRKRPGMYIGSTSERGLHHLVWEIVDNSIDEALAGYANQIEVVIEKDNWIKVTDNGRGIPVDIQEKMGRPAVEVILTVLHAGGKFGGGGYKVSGGLHGVGSSVVNALSQDLEVYVHRNETIYHQAYKKGVPQFDLKEVGTTDKTGTVIRFKADGEIFTETTVYNYETLQQRIRELAFLNKGIQITLRDERDEENVREDSYHYEGGIKSYVELLNENKEPIHDEPIYIHQSKDDIEVEIAIQYNSGYATNLLTYANNIHTYEGGTHEDGFKRALTRVLNSYGLSSKIMKEEKDRLSGEDTREGMTAIISIKHGDPQFEGQTKTKLGNSEVRQVVDKLFSEHFERFLYENPQVARTVVEKGIMAARARVAAKKAREVTRRKSALDVASLPGKLADCSSKSPEECEIFLVEGDSAGGSTKSGRDSRTQAILPLRGKILNVEKARLDRILNNNEIRQMITAFGTGIGGDFDLAKARYHKIVIMTDADVDGAHIRTLLLTFFYRFMRPLIEAGYVYIAQPPLYKLTQGKQKYYVYNDRELDKLKSELNPTPKWSIARYKGLGEMNADQLWETTMNPEHRALLQVKLEDAIEADQTFEMLMGDVVENRRQFIEDNAVYANLDF

> <PDB ID(s) of Target Chain>


> <UniProt (SwissProt) Recommended Name of Target Chain>
DNA gyrase subunit B

> <UniProt (SwissProt) Entry Name of Target Chain>
GYRB_STAAU

> <UniProt (SwissProt) Primary ID of Target Chain>
P0A0K8

> <UniProt (SwissProt) Secondary ID(s) of Target Chain>
P20832

> <UniProt (SwissProt) Alternative ID(s) of Target Chain>


> <UniProt (TrEMBL) Submitted Name of Target Chain>


> <UniProt (TrEMBL) Entry Name of Target Chain>


> <UniProt (TrEMBL) Primary ID of Target Chain>


> <UniProt (TrEMBL) Secondary ID(s) of Target Chain>


> <UniProt (TrEMBL) Alternative ID(s) of Target Chain>


$$$$

  SciTegic02271514412D

 33 36  0  0  0  0            999 V2000
   20.6803   -6.4200    0.0000 N   0  0
   21.5044   -6.3825    0.0000 C   0  0
   22.7893   -6.7352    0.0000 C   0  0
   14.9671   -5.0630    0.0000 Cl  0  0
   22.7520   -5.9110    0.0000 C   0  0
   16.4886   -6.5603    0.0000 N   0  0
   15.0485   -6.8561    0.0000 C   0  0
   17.7634   -5.8373    0.0000 C   0  0
   24.1647   -5.6972    0.0000 O   0  0
   19.4076   -5.7650    0.0000 C   0  0
   15.6558   -5.5172    0.0000 C   0  0
   21.9566   -5.6920    0.0000 S   0  0
   23.2732   -4.5806    0.0000 O   0  0
   22.0171   -7.0254    0.0000 N   0  0
   20.2964   -7.1502    0.0000 C   0  0
   18.2674   -7.9557    0.0000 C   0  0
   24.2157   -6.8198    0.0000 C   0  0
   16.6492   -4.4322    0.0000 Cl  0  0
   19.4722   -7.1875    0.0000 C   0  0  2  0  0  0
   19.0916   -7.9194    0.0000 O   0  0
   24.1181   -8.4669    0.0000 C   0  0
   23.4293   -8.0128    0.0000 N   0  0
   18.2079   -6.5323    0.0000 N   0  0
   23.4781   -7.1892    0.0000 C   0  0
   16.4280   -5.2270    0.0000 C   0  0
   24.9046   -7.2739    0.0000 C   0  0
   15.6932   -6.3414    0.0000 C   0  0
   23.3966   -5.3962    0.0000 C   0  0
   24.8557   -8.0974    0.0000 N   0  0
   19.0321   -6.4948    0.0000 C   0  0  2  0  0  0
   20.2318   -5.7277    0.0000 C   0  0
   18.1431   -5.1048    0.0000 O   0  0
   16.9394   -5.8747    0.0000 C   0  0
 25 18  1  0
 29 26  2  0
 20 16  1  0
 24 22  1  0
 14  3  1  0
 31  1  1  0
 24 17  2  0
  8 33  1  0
 11  4  1  0
 28 13  2  0
 25 11  1  0
  2 14  2  0
 30 19  1  0
 33 25  2  0
  5 28  1  0
  1  2  1  0
 19 20  1  6
 19 15  1  0
 27  6  1  0
 12  2  1  0
 28  9  1  0
 31 10  1  0
  8 32  2  0
 11 27  2  0
  3 24  1  0
  5 12  1  0
 21 29  1  0
  6 33  1  0
  3  5  2  0
 10 30  1  0
 22 21  2  0
 27  7  1  0
 30 23  1  6
 23  8  1  0
 26 17  1  0
 15  1  1  0
M  END
> <From> 
www.bindingDB.org

> <BindingDB Reactant_set_id>
50271374

> <Ligand InChI>
InChI=1S/C20H20Cl2N6O4S/c1-9-13(21)14(22)16(25-9)18(29)26-10-4-6-28(7-12(10)32-2)20-27-15(17(33-20)19(30)31)11-3-5-23-8-24-11/h3,5,8,10,12,25H,4,6-7H2,1-2H3,(H,26,29)(H,30,31)/t10-,12+/m1/s1

> <Ligand InChI Key>
PUERARBRJYRHQA-PWSUYJOCSA-N

> <BindingDB MonomerID>
50047311

> <BindingDB Ligand Name>
CHEMBL3314578

> <Target Name Assigned by Curator or DataSource>
DNA Gyrase Subunit B

> <Target Source Organism According to Curator or DataSource>
Staphylococcus aureus

> <Ki (nM)>


> <IC50 (nM)>
<10.0

> <Kd (nM)>


> <EC50 (nM)>


> <kon (M-1-s-1)>


> <koff (s-1)>


> <pH>


> <Temp C>


> <Curation/DataSource>
ChEMBL

> <Article DOI>
10.1021/jm500462x

> <PMID>
24959892

> <PubChem AID>


> <Patent Number>


> <Authors>
Basarab, GS; Hill, PJ; Garner, CE; Hull, K; Green, O; Sherer, BA; Dangel, PB; Manchester, JI; Bist, S; Hauck, S; Zhou, F; Uria-Nickelsen, M; Illingworth, R; Alm, R; Rooney, M; Eakin, AE

> <Institution>
AstraZeneca

> <Link to Ligand in BindingDB>
http://www.bindingdb.org/bind/chemsearch/marvin/MolStructure.jsp?monomerid=50047311

> <Link to Ligand-Target Pair in BindingDB>
http://www.bindingdb.org/jsp/dbsearch/PrimarySearch_ki.jsp?energyterm=kJ/mole&tag=pol&polymerid=2626&target=DNA+Gyrase+Subunit+B&column=ki&startPg=0&Increment=50&submit=Search

> <Link to Ligand-Target Pair in BindingDB>
http://www.bindingdb.org/jsp/dbsearch/PrimarySearch_ki.jsp?energyterm=kJ/mole&tag=r21&monomerid=50047311&enzyme=DNA+Gyrase+Subunit+B&column=ki&startPg=0&Increment=50&submit=Search

> <Ligand HET ID in PDB>


> <PDB ID(s) for Ligand-Target Complex>


> <PubChem CID>
25223022

> <PubChem SID>
103977991

> <ChEBI ID of Ligand>


> <ChEMBL ID of Ligand>
CHEMBL281749

> <DrugBank ID of Ligand>


> <IUPHAR_GRAC ID of Ligand>


> <KEGG ID of Ligand>


> <ZINC ID of Ligand>
ZINC03787711

> <Number of Protein Chains in Target (>1 implies a multichain complex)>
1

> <BindingDB Target Chain Sequence>
MVTALSDVNNTDNYGAGQIQVLEGLEAVRKRPGMYIGSTSERGLHHLVWEIVDNSIDEALAGYANQIEVVIEKDNWIKVTDNGRGIPVDIQEKMGRPAVEVILTVLHAGGKFGGGGYKVSGGLHGVGSSVVNALSQDLEVYVHRNETIYHQAYKKGVPQFDLKEVGTTDKTGTVIRFKADGEIFTETTVYNYETLQQRIRELAFLNKGIQITLRDERDEENVREDSYHYEGGIKSYVELLNENKEPIHDEPIYIHQSKDDIEVEIAIQYNSGYATNLLTYANNIHTYEGGTHEDGFKRALTRVLNSYGLSSKIMKEEKDRLSGEDTREGMTAIISIKHGDPQFEGQTKTKLGNSEVRQVVDKLFSEHFERFLYENPQVARTVVEKGIMAARARVAAKKAREVTRRKSALDVASLPGKLADCSSKSPEECEIFLVEGDSAGGSTKSGRDSRTQAILPLRGKILNVEKARLDRILNNNEIRQMITAFGTGIGGDFDLAKARYHKIVIMTDADVDGAHIRTLLLTFFYRFMRPLIEAGYVYIAQPPLYKLTQGKQKYYVYNDRELDKLKSELNPTPKWSIARYKGLGEMNADQLWETTMNPEHRALLQVKLEDAIEADQTFEMLMGDVVENRRQFIEDNAVYANLDF

> <PDB ID(s) of Target Chain>


> <UniProt (SwissProt) Recommended Name of Target Chain>
DNA gyrase subunit B

> <UniProt (SwissProt) Entry Name of Target Chain>
GYRB_STAAU

> <UniProt (SwissProt) Primary ID of Target Chain>
P0A0K8

> <UniProt (SwissProt) Secondary ID(s) of Target Chain>
P20832

> <UniProt (SwissProt) Alternative ID(s) of Target Chain>


> <UniProt (TrEMBL) Submitted Name of Target Chain>


> <UniProt (TrEMBL) Entry Name of Target Chain>


> <UniProt (TrEMBL) Primary ID of Target Chain>


> <UniProt (TrEMBL) Secondary ID(s) of Target Chain>


> <UniProt (TrEMBL) Alternative ID(s) of Target Chain>


$$$$

  SciTegic02271514412D

 33 36  0  0  0  0            999 V2000
   20.6803   -6.4200    0.0000 N   0  0
   21.5044   -6.3825    0.0000 C   0  0
   22.7893   -6.7352    0.0000 C   0  0
   14.9671   -5.0630    0.0000 Cl  0  0
   22.7520   -5.9110    0.0000 C   0  0
   16.4886   -6.5603    0.0000 N   0  0
   15.0485   -6.8561    0.0000 C   0  0
   17.7634   -5.8373    0.0000 C   0  0
   24.1647   -5.6972    0.0000 O   0  0
   19.4076   -5.7650    0.0000 C   0  0
   15.6558   -5.5172    0.0000 C   0  0
   21.9566   -5.6920    0.0000 S   0  0
   23.2732   -4.5806    0.0000 O   0  0
   22.0171   -7.0254    0.0000 N   0  0
   20.2964   -7.1502    0.0000 C   0  0
   18.2674   -7.9557    0.0000 C   0  0
   24.2157   -6.8198    0.0000 C   0  0
   16.6492   -4.4322    0.0000 Cl  0  0
   19.4722   -7.1875    0.0000 C   0  0  2  0  0  0
   19.0916   -7.9194    0.0000 O   0  0
   24.1181   -8.4669    0.0000 N   0  0
   23.4293   -8.0128    0.0000 C   0  0
   18.2079   -6.5323    0.0000 N   0  0
   23.4781   -7.1892    0.0000 C   0  0
   16.4280   -5.2270    0.0000 C   0  0
   24.9046   -7.2739    0.0000 N   0  0
   15.6932   -6.3414    0.0000 C   0  0
   23.3966   -5.3962    0.0000 C   0  0
   24.8557   -8.0974    0.0000 C   0  0
   19.0321   -6.4948    0.0000 C   0  0  2  0  0  0
   20.2318   -5.7277    0.0000 C   0  0
   18.1431   -5.1048    0.0000 O   0  0
   16.9394   -5.8747    0.0000 C   0  0
 25 18  1  0
 29 26  2  0
 20 16  1  0
 24 22  1  0
 14  3  1  0
 31  1  1  0
 24 17  2  0
  8 33  1  0
 11  4  1  0
 28 13  2  0
 25 11  1  0
  2 14  2  0
 30 19  1  0
 33 25  2  0
  5 28  1  0
  1  2  1  0
 19 20  1  6
 19 15  1  0
 27  6  1  0
 12  2  1  0
 28  9  1  0
 31 10  1  0
  8 32  2  0
 11 27  2  0
  3 24  1  0
  5 12  1  0
 21 29  1  0
  6 33  1  0
  3  5  2  0
 10 30  1  0
 22 21  2  0
 27  7  1  0
 30 23  1  6
 23  8  1  0
 26 17  1  0
 15  1  1  0
M  END
> <From> 
www.bindingDB.org

> <BindingDB Reactant_set_id>
50271375

> <Ligand InChI>
InChI=1S/C20H20Cl2N6O4S/c1-9-13(21)14(22)16(25-9)18(29)26-11-3-4-28(7-12(11)32-2)20-27-15(17(33-20)19(30)31)10-5-23-8-24-6-10/h5-6,8,11-12,25H,3-4,7H2,1-2H3,(H,26,29)(H,30,31)/t11-,12+/m1/s1

> <Ligand InChI Key>
AHFWNEDKDLPNEU-NEPJUHHUSA-N

> <BindingDB MonomerID>
50047312

> <BindingDB Ligand Name>
CHEMBL3313938

> <Target Name Assigned by Curator or DataSource>
DNA Gyrase Subunit B

> <Target Source Organism According to Curator or DataSource>
Staphylococcus aureus

> <Ki (nM)>


> <IC50 (nM)>
<10.0

> <Kd (nM)>


> <EC50 (nM)>


> <kon (M-1-s-1)>


> <koff (s-1)>


> <pH>


> <Temp C>


> <Curation/DataSource>
ChEMBL

> <Article DOI>
10.1021/jm500462x

> <PMID>
24959892

> <PubChem AID>


> <Patent Number>


> <Authors>
Basarab, GS; Hill, PJ; Garner, CE; Hull, K; Green, O; Sherer, BA; Dangel, PB; Manchester, JI; Bist, S; Hauck, S; Zhou, F; Uria-Nickelsen, M; Illingworth, R; Alm, R; Rooney, M; Eakin, AE

> <Institution>
AstraZeneca

> <Link to Ligand in BindingDB>
http://www.bindingdb.org/bind/chemsearch/marvin/MolStructure.jsp?monomerid=50047312

> <Link to Ligand-Target Pair in BindingDB>
http://www.bindingdb.org/jsp/dbsearch/PrimarySearch_ki.jsp?energyterm=kJ/mole&tag=pol&polymerid=2626&target=DNA+Gyrase+Subunit+B&column=ki&startPg=0&Increment=50&submit=Search

> <Link to Ligand-Target Pair in BindingDB>
http://www.bindingdb.org/jsp/dbsearch/PrimarySearch_ki.jsp?energyterm=kJ/mole&tag=r21&monomerid=50047312&enzyme=DNA+Gyrase+Subunit+B&column=ki&startPg=0&Increment=50&submit=Search

> <Ligand HET ID in PDB>


> <PDB ID(s) for Ligand-Target Complex>


> <PubChem CID>
118707659

> <PubChem SID>
103977992

> <ChEBI ID of Ligand>


> <ChEMBL ID of Ligand>
CHEMBL33497

> <DrugBank ID of Ligand>


> <IUPHAR_GRAC ID of Ligand>


> <KEGG ID of Ligand>


> <ZINC ID of Ligand>
ZINC01889734

> <Number of Protein Chains in Target (>1 implies a multichain complex)>
1

> <BindingDB Target Chain Sequence>
MVTALSDVNNTDNYGAGQIQVLEGLEAVRKRPGMYIGSTSERGLHHLVWEIVDNSIDEALAGYANQIEVVIEKDNWIKVTDNGRGIPVDIQEKMGRPAVEVILTVLHAGGKFGGGGYKVSGGLHGVGSSVVNALSQDLEVYVHRNETIYHQAYKKGVPQFDLKEVGTTDKTGTVIRFKADGEIFTETTVYNYETLQQRIRELAFLNKGIQITLRDERDEENVREDSYHYEGGIKSYVELLNENKEPIHDEPIYIHQSKDDIEVEIAIQYNSGYATNLLTYANNIHTYEGGTHEDGFKRALTRVLNSYGLSSKIMKEEKDRLSGEDTREGMTAIISIKHGDPQFEGQTKTKLGNSEVRQVVDKLFSEHFERFLYENPQVARTVVEKGIMAARARVAAKKAREVTRRKSALDVASLPGKLADCSSKSPEECEIFLVEGDSAGGSTKSGRDSRTQAILPLRGKILNVEKARLDRILNNNEIRQMITAFGTGIGGDFDLAKARYHKIVIMTDADVDGAHIRTLLLTFFYRFMRPLIEAGYVYIAQPPLYKLTQGKQKYYVYNDRELDKLKSELNPTPKWSIARYKGLGEMNADQLWETTMNPEHRALLQVKLEDAIEADQTFEMLMGDVVENRRQFIEDNAVYANLDF

> <PDB ID(s) of Target Chain>


> <UniProt (SwissProt) Recommended Name of Target Chain>
DNA gyrase subunit B

> <UniProt (SwissProt) Entry Name of Target Chain>
GYRB_STAAU

> <UniProt (SwissProt) Primary ID of Target Chain>
P0A0K8

> <UniProt (SwissProt) Secondary ID(s) of Target Chain>
P20832

> <UniProt (SwissProt) Alternative ID(s) of Target Chain>


> <UniProt (TrEMBL) Submitted Name of Target Chain>


> <UniProt (TrEMBL) Entry Name of Target Chain>


> <UniProt (TrEMBL) Primary ID of Target Chain>


> <UniProt (TrEMBL) Secondary ID(s) of Target Chain>


> <UniProt (TrEMBL) Alternative ID(s) of Target Chain>


$$$$

  SciTegic02271514412D

 37 40  0  0  0  0            999 V2000
   20.6803   -6.4200    0.0000 N   0  0
   21.5044   -6.3825    0.0000 C   0  0
   22.7893   -6.7352    0.0000 C   0  0
   14.9671   -5.0630    0.0000 Cl  0  0
   22.7520   -5.9110    0.0000 C   0  0
   16.4886   -6.5603    0.0000 N   0  0
   15.0485   -6.8561    0.0000 C   0  0
   17.7634   -5.8373    0.0000 C   0  0
   24.1647   -5.6972    0.0000 O   0  0
   19.4076   -5.7650    0.0000 C   0  0
   15.6558   -5.5172    0.0000 C   0  0
   21.9566   -5.6920    0.0000 S   0  0
   23.2732   -4.5806    0.0000 O   0  0
   22.0171   -7.0254    0.0000 N   0  0
   20.2964   -7.1502    0.0000 C   0  0
   18.2674   -7.9557    0.0000 C   0  0
   24.2157   -6.8198    0.0000 N   0  0
   16.6492   -4.4322    0.0000 Cl  0  0
   19.4722   -7.1875    0.0000 C   0  0  2  0  0  0
   19.0916   -7.9194    0.0000 O   0  0
   24.1181   -8.4669    0.0000 C   0  0
   23.4293   -8.0128    0.0000 N   0  0
   18.2079   -6.5323    0.0000 N   0  0
   23.4781   -7.1892    0.0000 C   0  0
   16.4280   -5.2270    0.0000 C   0  0
   24.9046   -7.2739    0.0000 C   0  0
   15.6932   -6.3414    0.0000 C   0  0
   23.3966   -5.3962    0.0000 C   0  0
   24.8557   -8.0974    0.0000 C   0  0
   19.0321   -6.4948    0.0000 C   0  0  2  0  0  0
   20.2318   -5.7277    0.0000 C   0  0
   18.1431   -5.1048    0.0000 O   0  0
   16.9394   -5.8747    0.0000 C   0  0
   25.6423   -6.9045    0.0000 O   0  0
   25.6911   -6.0809    0.0000 C   0  0
   24.0693   -9.2905    0.0000 O   0  0
   23.3317   -9.6600    0.0000 C   0  0
 25 18  1  0
 29 26  2  0
 20 16  1  0
 24 22  1  0
 14  3  1  0
 31  1  1  0
 24 17  2  0
  8 33  1  0
 11  4  1  0
 28 13  2  0
 25 11  1  0
  2 14  2  0
 30 19  1  0
 33 25  2  0
  5 28  1  0
  1  2  1  0
 19 20  1  6
 19 15  1  0
 27  6  1  0
 12  2  1  0
 28  9  1  0
 31 10  1  0
  8 32  2  0
 11 27  2  0
  3 24  1  0
  5 12  1  0
 21 29  1  0
  6 33  1  0
  3  5  2  0
 10 30  1  0
 22 21  2  0
 27  7  1  0
 30 23  1  6
 23  8  1  0
 26 17  1  0
 15  1  1  0
 26 34  1  0
 34 35  1  0
 21 36  1  0
 36 37  1  0
M  END
> <From> 
www.bindingDB.org

> <BindingDB Reactant_set_id>
50271376

> <Ligand InChI>
InChI=1S/C22H24Cl2N6O6S/c1-9-14(23)15(24)16(25-9)20(31)26-10-5-6-30(8-11(10)34-2)22-29-17(18(37-22)21(32)33)19-27-12(35-3)7-13(28-19)36-4/h7,10-11,25H,5-6,8H2,1-4H3,(H,26,31)(H,32,33)/t10-,11+/m1/s1

> <Ligand InChI Key>
DTISYFUURJSZEL-MNOVXSKESA-N

> <BindingDB MonomerID>
50047313

> <BindingDB Ligand Name>
CHEMBL3314579

> <Target Name Assigned by Curator or DataSource>
DNA Gyrase Subunit B

> <Target Source Organism According to Curator or DataSource>
Staphylococcus aureus

> <Ki (nM)>


> <IC50 (nM)>
<10.0

> <Kd (nM)>


> <EC50 (nM)>


> <kon (M-1-s-1)>


> <koff (s-1)>


> <pH>


> <Temp C>


> <Curation/DataSource>
ChEMBL

> <Article DOI>
10.1021/jm500462x

> <PMID>
24959892

> <PubChem AID>


> <Patent Number>


> <Authors>
Basarab, GS; Hill, PJ; Garner, CE; Hull, K; Green, O; Sherer, BA; Dangel, PB; Manchester, JI; Bist, S; Hauck, S; Zhou, F; Uria-Nickelsen, M; Illingworth, R; Alm, R; Rooney, M; Eakin, AE

> <Institution>
AstraZeneca

> <Link to Ligand in BindingDB>
http://www.bindingdb.org/bind/chemsearch/marvin/MolStructure.jsp?monomerid=50047313

> <Link to Ligand-Target Pair in BindingDB>
http://www.bindingdb.org/jsp/dbsearch/PrimarySearch_ki.jsp?energyterm=kJ/mole&tag=pol&polymerid=2626&target=DNA+Gyrase+Subunit+B&column=ki&startPg=0&Increment=50&submit=Search

> <Link to Ligand-Target Pair in BindingDB>
http://www.bindingdb.org/jsp/dbsearch/PrimarySearch_ki.jsp?energyterm=kJ/mole&tag=r21&monomerid=50047313&enzyme=DNA+Gyrase+Subunit+B&column=ki&startPg=0&Increment=50&submit=Search

> <Ligand HET ID in PDB>


> <PDB ID(s) for Ligand-Target Complex>


> <PubChem CID>
25223221

> <PubChem SID>
103977993

> <ChEBI ID of Ligand>


> <ChEMBL ID of Ligand>
CHEMBL34058

> <DrugBank ID of Ligand>


> <IUPHAR_GRAC ID of Ligand>


> <KEGG ID of Ligand>


> <ZINC ID of Ligand>
ZINC03922448

> <Number of Protein Chains in Target (>1 implies a multichain complex)>
1

> <BindingDB Target Chain Sequence>
MVTALSDVNNTDNYGAGQIQVLEGLEAVRKRPGMYIGSTSERGLHHLVWEIVDNSIDEALAGYANQIEVVIEKDNWIKVTDNGRGIPVDIQEKMGRPAVEVILTVLHAGGKFGGGGYKVSGGLHGVGSSVVNALSQDLEVYVHRNETIYHQAYKKGVPQFDLKEVGTTDKTGTVIRFKADGEIFTETTVYNYETLQQRIRELAFLNKGIQITLRDERDEENVREDSYHYEGGIKSYVELLNENKEPIHDEPIYIHQSKDDIEVEIAIQYNSGYATNLLTYANNIHTYEGGTHEDGFKRALTRVLNSYGLSSKIMKEEKDRLSGEDTREGMTAIISIKHGDPQFEGQTKTKLGNSEVRQVVDKLFSEHFERFLYENPQVARTVVEKGIMAARARVAAKKAREVTRRKSALDVASLPGKLADCSSKSPEECEIFLVEGDSAGGSTKSGRDSRTQAILPLRGKILNVEKARLDRILNNNEIRQMITAFGTGIGGDFDLAKARYHKIVIMTDADVDGAHIRTLLLTFFYRFMRPLIEAGYVYIAQPPLYKLTQGKQKYYVYNDRELDKLKSELNPTPKWSIARYKGLGEMNADQLWETTMNPEHRALLQVKLEDAIEADQTFEMLMGDVVENRRQFIEDNAVYANLDF

> <PDB ID(s) of Target Chain>


> <UniProt (SwissProt) Recommended Name of Target Chain>
DNA gyrase subunit B

> <UniProt (SwissProt) Entry Name of Target Chain>
GYRB_STAAU

> <UniProt (SwissProt) Primary ID of Target Chain>
P0A0K8

> <UniProt (SwissProt) Secondary ID(s) of Target Chain>
P20832

> <UniProt (SwissProt) Alternative ID(s) of Target Chain>


> <UniProt (TrEMBL) Submitted Name of Target Chain>


> <UniProt (TrEMBL) Entry Name of Target Chain>


> <UniProt (TrEMBL) Primary ID of Target Chain>


> <UniProt (TrEMBL) Secondary ID(s) of Target Chain>


> <UniProt (TrEMBL) Alternative ID(s) of Target Chain>


$$$$

  SciTegic02271514412D

 35 38  0  0  0  0            999 V2000
   21.5951   -5.3492    0.0000 N   0  0
   20.8604   -6.4637    0.0000 N   0  0
   21.6558   -6.6826    0.0000 C   0  0
   20.1339   -5.1854    0.0000 C   0  0
   20.8228   -5.6395    0.0000 C   0  0
   22.1098   -5.9938    0.0000 C   0  0
   16.4378   -6.3717    0.0000 O   0  0
   12.3133   -3.5153    0.0000 Cl  0  0
   19.3633   -5.4777    0.0000 N   0  0
   19.3028   -4.1443    0.0000 S   0  0
   13.0394   -4.7937    0.0000 C   0  0
   15.5541   -4.9846    0.0000 N   0  0
   14.2856   -4.3270    0.0000 C   0  0
   12.3947   -5.3084    0.0000 C   0  0
   13.8348   -5.0126    0.0000 N   0  0
   20.6194   -3.0329    0.0000 O   0  0
   15.4893   -3.5571    0.0000 O   0  0
   20.0982   -4.3633    0.0000 C   0  0
   17.5780   -4.1800    0.0000 C   0  0
   16.8184   -5.6398    0.0000 C   0  0  2  0  0  0
   15.6136   -6.4080    0.0000 C   0  0
   16.7538   -4.2173    0.0000 C   0  0
   18.0265   -4.8723    0.0000 N   0  0
   16.3783   -4.9471    0.0000 C   0  0  1  0  0  0
   20.7428   -3.8485    0.0000 C   0  0
   17.6426   -5.6025    0.0000 C   0  0
   13.0020   -3.9695    0.0000 C   0  0
   13.7742   -3.6793    0.0000 C   0  0
   15.1096   -4.2896    0.0000 C   0  0
   21.5109   -4.1495    0.0000 O   0  0
   18.8506   -4.8348    0.0000 C   0  0
   13.9954   -2.8845    0.0000 Cl  0  0
   20.2218   -6.9737    0.0000 C   0  0
   19.4609   -6.6757    0.0000 O   0  0
   18.8224   -7.1856    0.0000 C   0  0
  5  4  1  0
  5  1  2  0
  3  6  2  0
  6  1  1  0
  5  2  1  0
  2  3  1  0
 28 27  1  0
 24 12  1  6
 27  8  1  0
 13 28  2  0
 22 24  1  0
 15 13  1  0
 26 23  1  0
 29 17  2  0
 25 16  2  0
 24 20  1  0
 18 25  1  0
 10 31  1  0
 27 11  2  0
  9  4  1  0
 25 30  1  0
 20  7  1  6
 29 13  1  0
  4 18  2  0
 20 26  1  0
 19 23  1  0
 11 14  1  0
 11 15  1  0
 19 22  1  0
 31  9  2  0
 12 29  1  0
 18 10  1  0
 23 31  1  0
  7 21  1  0
 28 32  1  0
  2 33  1  0
 33 34  1  0
 34 35  1  0
M  END
> <From> 
www.bindingDB.org

> <BindingDB Reactant_set_id>
50271377

> <Ligand InChI>
InChI=1S/C21H24Cl2N6O5S/c1-10-13(22)14(23)15(25-10)19(30)26-11-4-6-28(8-12(11)34-3)21-27-16(17(35-21)20(31)32)18-24-5-7-29(18)9-33-2/h5,7,11-12,25H,4,6,8-9H2,1-3H3,(H,26,30)(H,31,32)/t11-,12+/m1/s1

> <Ligand InChI Key>
HJHYIVAJQXEXCN-NEPJUHHUSA-N

> <BindingDB MonomerID>
50047314

> <BindingDB Ligand Name>
CHEMBL3314580

> <Target Name Assigned by Curator or DataSource>
DNA Gyrase Subunit B

> <Target Source Organism According to Curator or DataSource>
Staphylococcus aureus

> <Ki (nM)>


> <IC50 (nM)>
<10.0

> <Kd (nM)>


> <EC50 (nM)>


> <kon (M-1-s-1)>


> <koff (s-1)>


> <pH>


> <Temp C>


> <Curation/DataSource>
ChEMBL

> <Article DOI>
10.1021/jm500462x

> <PMID>
24959892

> <PubChem AID>


> <Patent Number>


> <Authors>
Basarab, GS; Hill, PJ; Garner, CE; Hull, K; Green, O; Sherer, BA; Dangel, PB; Manchester, JI; Bist, S; Hauck, S; Zhou, F; Uria-Nickelsen, M; Illingworth, R; Alm, R; Rooney, M; Eakin, AE

> <Institution>
AstraZeneca

> <Link to Ligand in BindingDB>
http://www.bindingdb.org/bind/chemsearch/marvin/MolStructure.jsp?monomerid=50047314

> <Link to Ligand-Target Pair in BindingDB>
http://www.bindingdb.org/jsp/dbsearch/PrimarySearch_ki.jsp?energyterm=kJ/mole&tag=pol&polymerid=2626&target=DNA+Gyrase+Subunit+B&column=ki&startPg=0&Increment=50&submit=Search

> <Link to Ligand-Target Pair in BindingDB>
http://www.bindingdb.org/jsp/dbsearch/PrimarySearch_ki.jsp?energyterm=kJ/mole&tag=r21&monomerid=50047314&enzyme=DNA+Gyrase+Subunit+B&column=ki&startPg=0&Increment=50&submit=Search

> <Ligand HET ID in PDB>


> <PDB ID(s) for Ligand-Target Complex>


> <PubChem CID>
25223322

> <PubChem SID>
103977994

> <ChEBI ID of Ligand>


> <ChEMBL ID of Ligand>
CHEMBL30321

> <DrugBank ID of Ligand>


> <IUPHAR_GRAC ID of Ligand>


> <KEGG ID of Ligand>


> <ZINC ID of Ligand>
ZINC03922477

> <Number of Protein Chains in Target (>1 implies a multichain complex)>
1

> <BindingDB Target Chain Sequence>
MVTALSDVNNTDNYGAGQIQVLEGLEAVRKRPGMYIGSTSERGLHHLVWEIVDNSIDEALAGYANQIEVVIEKDNWIKVTDNGRGIPVDIQEKMGRPAVEVILTVLHAGGKFGGGGYKVSGGLHGVGSSVVNALSQDLEVYVHRNETIYHQAYKKGVPQFDLKEVGTTDKTGTVIRFKADGEIFTETTVYNYETLQQRIRELAFLNKGIQITLRDERDEENVREDSYHYEGGIKSYVELLNENKEPIHDEPIYIHQSKDDIEVEIAIQYNSGYATNLLTYANNIHTYEGGTHEDGFKRALTRVLNSYGLSSKIMKEEKDRLSGEDTREGMTAIISIKHGDPQFEGQTKTKLGNSEVRQVVDKLFSEHFERFLYENPQVARTVVEKGIMAARARVAAKKAREVTRRKSALDVASLPGKLADCSSKSPEECEIFLVEGDSAGGSTKSGRDSRTQAILPLRGKILNVEKARLDRILNNNEIRQMITAFGTGIGGDFDLAKARYHKIVIMTDADVDGAHIRTLLLTFFYRFMRPLIEAGYVYIAQPPLYKLTQGKQKYYVYNDRELDKLKSELNPTPKWSIARYKGLGEMNADQLWETTMNPEHRALLQVKLEDAIEADQTFEMLMGDVVENRRQFIEDNAVYANLDF

> <PDB ID(s) of Target Chain>


> <UniProt (SwissProt) Recommended Name of Target Chain>
DNA gyrase subunit B

> <UniProt (SwissProt) Entry Name of Target Chain>
GYRB_STAAU

> <UniProt (SwissProt) Primary ID of Target Chain>
P0A0K8

> <UniProt (SwissProt) Secondary ID(s) of Target Chain>
P20832

> <UniProt (SwissProt) Alternative ID(s) of Target Chain>


> <UniProt (TrEMBL) Submitted Name of Target Chain>


> <UniProt (TrEMBL) Entry Name of Target Chain>


> <UniProt (TrEMBL) Primary ID of Target Chain>


> <UniProt (TrEMBL) Secondary ID(s) of Target Chain>


> <UniProt (TrEMBL) Alternative ID(s) of Target Chain>


$$$$

  SciTegic02271514412D

 35 38  0  0  0  0            999 V2000
   20.6803   -6.4200    0.0000 N   0  0
   21.5044   -6.3825    0.0000 C   0  0
   22.7893   -6.7352    0.0000 C   0  0
   14.9671   -5.0630    0.0000 Cl  0  0
   22.7520   -5.9110    0.0000 C   0  0
   16.4886   -6.5603    0.0000 N   0  0
   15.0485   -6.8561    0.0000 C   0  0
   17.7634   -5.8373    0.0000 C   0  0
   24.1647   -5.6972    0.0000 O   0  0
   19.4076   -5.7650    0.0000 C   0  0
   15.6558   -5.5172    0.0000 C   0  0
   21.9566   -5.6920    0.0000 S   0  0
   23.2732   -4.5806    0.0000 O   0  0
   22.0171   -7.0254    0.0000 N   0  0
   20.2964   -7.1502    0.0000 C   0  0
   18.2674   -7.9557    0.0000 C   0  0
   24.2157   -6.8198    0.0000 N   0  0
   16.6492   -4.4322    0.0000 Cl  0  0
   19.4722   -7.1875    0.0000 C   0  0  2  0  0  0
   19.0916   -7.9194    0.0000 O   0  0
   24.1181   -8.4669    0.0000 C   0  0
   23.4293   -8.0128    0.0000 N   0  0
   18.2079   -6.5323    0.0000 N   0  0
   23.4781   -7.1892    0.0000 C   0  0
   16.4280   -5.2270    0.0000 C   0  0
   24.9046   -7.2739    0.0000 C   0  0
   15.6932   -6.3414    0.0000 C   0  0
   23.3966   -5.3962    0.0000 C   0  0
   24.8557   -8.0974    0.0000 C   0  0
   19.0321   -6.4948    0.0000 C   0  0  2  0  0  0
   20.2318   -5.7277    0.0000 C   0  0
   18.1431   -5.1048    0.0000 O   0  0
   16.9394   -5.8747    0.0000 C   0  0
   25.6423   -6.9045    0.0000 O   0  0
   25.6911   -6.0809    0.0000 C   0  0
 25 18  1  0
 29 26  2  0
 20 16  1  0
 24 22  1  0
 14  3  1  0
 31  1  1  0
 24 17  2  0
  8 33  1  0
 11  4  1  0
 28 13  2  0
 25 11  1  0
  2 14  2  0
 30 19  1  0
 33 25  2  0
  5 28  1  0
  1  2  1  0
 19 20  1  6
 19 15  1  0
 27  6  1  0
 12  2  1  0
 28  9  1  0
 31 10  1  0
  8 32  2  0
 11 27  2  0
  3 24  1  0
  5 12  1  0
 21 29  1  0
  6 33  1  0
  3  5  2  0
 10 30  1  0
 22 21  2  0
 27  7  1  0
 30 23  1  6
 23  8  1  0
 26 17  1  0
 15  1  1  0
 26 34  1  0
 34 35  1  0
M  END
> <From> 
www.bindingDB.org

> <BindingDB Reactant_set_id>
50271378

> <Ligand InChI>
InChI=1S/C21H22Cl2N6O5S/c1-9-13(22)14(23)15(25-9)19(30)26-10-5-7-29(8-11(10)33-2)21-28-16(17(35-21)20(31)32)18-24-6-4-12(27-18)34-3/h4,6,10-11,25H,5,7-8H2,1-3H3,(H,26,30)(H,31,32)/t10-,11+/m1/s1

> <Ligand InChI Key>
SZSDINAPKOESMU-MNOVXSKESA-N

> <BindingDB MonomerID>
50047315

> <BindingDB Ligand Name>
CHEMBL3314581

> <Target Name Assigned by Curator or DataSource>
DNA Gyrase Subunit B

> <Target Source Organism According to Curator or DataSource>
Staphylococcus aureus

> <Ki (nM)>


> <IC50 (nM)>
<10.0

> <Kd (nM)>


> <EC50 (nM)>


> <kon (M-1-s-1)>


> <koff (s-1)>


> <pH>


> <Temp C>


> <Curation/DataSource>
ChEMBL

> <Article DOI>
10.1021/jm500462x

> <PMID>
24959892

> <PubChem AID>


> <Patent Number>


> <Authors>
Basarab, GS; Hill, PJ; Garner, CE; Hull, K; Green, O; Sherer, BA; Dangel, PB; Manchester, JI; Bist, S; Hauck, S; Zhou, F; Uria-Nickelsen, M; Illingworth, R; Alm, R; Rooney, M; Eakin, AE

> <Institution>
AstraZeneca

> <Link to Ligand in BindingDB>
http://www.bindingdb.org/bind/chemsearch/marvin/MolStructure.jsp?monomerid=50047315

> <Link to Ligand-Target Pair in BindingDB>
http://www.bindingdb.org/jsp/dbsearch/PrimarySearch_ki.jsp?energyterm=kJ/mole&tag=pol&polymerid=2626&target=DNA+Gyrase+Subunit+B&column=ki&startPg=0&Increment=50&submit=Search

> <Link to Ligand-Target Pair in BindingDB>
http://www.bindingdb.org/jsp/dbsearch/PrimarySearch_ki.jsp?energyterm=kJ/mole&tag=r21&monomerid=50047315&enzyme=DNA+Gyrase+Subunit+B&column=ki&startPg=0&Increment=50&submit=Search

> <Ligand HET ID in PDB>


> <PDB ID(s) for Ligand-Target Complex>


> <PubChem CID>
25223723

> <PubChem SID>
103977995

> <ChEBI ID of Ligand>


> <ChEMBL ID of Ligand>
CHEMBL34685

> <DrugBank ID of Ligand>


> <IUPHAR_GRAC ID of Ligand>


> <KEGG ID of Ligand>


> <ZINC ID of Ligand>
ZINC29220263

> <Number of Protein Chains in Target (>1 implies a multichain complex)>
1

> <BindingDB Target Chain Sequence>
MVTALSDVNNTDNYGAGQIQVLEGLEAVRKRPGMYIGSTSERGLHHLVWEIVDNSIDEALAGYANQIEVVIEKDNWIKVTDNGRGIPVDIQEKMGRPAVEVILTVLHAGGKFGGGGYKVSGGLHGVGSSVVNALSQDLEVYVHRNETIYHQAYKKGVPQFDLKEVGTTDKTGTVIRFKADGEIFTETTVYNYETLQQRIRELAFLNKGIQITLRDERDEENVREDSYHYEGGIKSYVELLNENKEPIHDEPIYIHQSKDDIEVEIAIQYNSGYATNLLTYANNIHTYEGGTHEDGFKRALTRVLNSYGLSSKIMKEEKDRLSGEDTREGMTAIISIKHGDPQFEGQTKTKLGNSEVRQVVDKLFSEHFERFLYENPQVARTVVEKGIMAARARVAAKKAREVTRRKSALDVASLPGKLADCSSKSPEECEIFLVEGDSAGGSTKSGRDSRTQAILPLRGKILNVEKARLDRILNNNEIRQMITAFGTGIGGDFDLAKARYHKIVIMTDADVDGAHIRTLLLTFFYRFMRPLIEAGYVYIAQPPLYKLTQGKQKYYVYNDRELDKLKSELNPTPKWSIARYKGLGEMNADQLWETTMNPEHRALLQVKLEDAIEADQTFEMLMGDVVENRRQFIEDNAVYANLDF

> <PDB ID(s) of Target Chain>


> <UniProt (SwissProt) Recommended Name of Target Chain>
DNA gyrase subunit B

> <UniProt (SwissProt) Entry Name of Target Chain>
GYRB_STAAU

> <UniProt (SwissProt) Primary ID of Target Chain>
P0A0K8

> <UniProt (SwissProt) Secondary ID(s) of Target Chain>
P20832

> <UniProt (SwissProt) Alternative ID(s) of Target Chain>


> <UniProt (TrEMBL) Submitted Name of Target Chain>


> <UniProt (TrEMBL) Entry Name of Target Chain>


> <UniProt (TrEMBL) Primary ID of Target Chain>


> <UniProt (TrEMBL) Secondary ID(s) of Target Chain>


> <UniProt (TrEMBL) Alternative ID(s) of Target Chain>


$$$$

  Mrv0541 11231422262D          

 26 28  0  0  0  0            999 V2000
    6.6077  -20.7648    0.0000 N   0  0  0  0  0  0  0  0  0  0  0  0
    5.9344  -20.2781    0.0000 C   0  0  0  0  0  0  0  0  0  0  0  0
    6.1910  -19.4898    0.0000 C   0  0  0  0  0  0  0  0  0  0  0  0
    7.0202  -19.4898    0.0000 C   0  0  0  0  0  0  0  0  0  0  0  0
    7.2767  -20.2786    0.0000 C   0  0  0  0  0  0  0  0  0  0  0  0
    5.1500  -20.5337    0.0000 C   0  0  0  0  0  0  0  0  0  0  0  0
    7.9936  -20.6868    0.0000 C   0  0  0  0  0  0  0  0  0  0  0  0
    7.9984  -21.5118    0.0000 O   0  0  0  0  0  0  0  0  0  0  0  0
    8.7055  -20.2703    0.0000 N   0  0  0  0  0  0  0  0  0  0  0  0
    9.4224  -20.6785    0.0000 C   0  0  1  0  0  0  0  0  0  0  0  0
    9.4235  -21.5056    0.0000 C   0  0  2  0  0  0  0  0  0  0  0  0
   10.1362  -21.9137    0.0000 C   0  0  0  0  0  0  0  0  0  0  0  0
   10.8506  -21.5006    0.0000 N   0  0  0  0  0  0  0  0  0  0  0  0
   10.8477  -20.6746    0.0000 C   0  0  0  0  0  0  0  0  0  0  0  0
   10.1305  -20.2620    0.0000 C   0  0  0  0  0  0  0  0  0  0  0  0
   11.5661  -21.9114    0.0000 C   0  0  0  0  0  0  0  0  0  0  0  0
    5.7064  -18.8223    0.0000 Cl  0  0  0  0  0  0  0  0  0  0  0  0
    7.5049  -18.8224    0.0000 Cl  0  0  0  0  0  0  0  0  0  0  0  0
   11.8287  -22.6932    0.0000 S   0  0  0  0  0  0  0  0  0  0  0  0
   12.6536  -22.6861    0.0000 C   0  0  0  0  0  0  0  0  0  0  0  0
   12.9017  -21.8992    0.0000 C   0  0  0  0  0  0  0  0  0  0  0  0
   12.2302  -21.4203    0.0000 N   0  0  0  0  0  0  0  0  0  0  0  0
   13.0628  -23.4023    0.0000 C   0  0  0  0  0  0  0  0  0  0  0  0
   12.6472  -24.1149    0.0000 O   0  0  0  0  0  0  0  0  0  0  0  0
   13.8877  -23.4060    0.0000 O   0  0  0  0  0  0  0  0  0  0  0  0
    8.7101  -21.9197    0.0000 F   0  0  0  0  0  0  0  0  0  0  0  0
  5  7  1  0  0  0  0
 10 15  1  0  0  0  0
 11 12  1  0  0  0  0
 12 13  1  0  0  0  0
 13 14  1  0  0  0  0
 14 15  1  0  0  0  0
  1  2  1  0  0  0  0
 13 16  1  0  0  0  0
  7  8  2  0  0  0  0
  3 17  1  0  0  0  0
  3  4  1  0  0  0  0
  4 18  1  0  0  0  0
 16 19  1  0  0  0  0
  7  9  1  0  0  0  0
  4  5  2  0  0  0  0
 10  9  1  6  0  0  0
 10 11  1  0  0  0  0
 19 20  1  0  0  0  0
 20 21  2  0  0  0  0
 21 22  1  0  0  0  0
 22 16  2  0  0  0  0
  5  1  1  0  0  0  0
 20 23  1  0  0  0  0
  2  3  2  0  0  0  0
 23 24  2  0  0  0  0
  2  6  1  0  0  0  0
 23 25  1  0  0  0  0
 11 26  1  6  0  0  0
M  END
> <From> 
www.bindingDB.org

> <BindingDB Reactant_set_id>
50271380

> <Ligand InChI>
InChI=1S/C15H15Cl2FN4O3S/c1-6-10(16)11(17)12(20-6)13(23)21-8-2-3-22(5-7(8)18)15-19-4-9(26-15)14(24)25/h4,7-8,20H,2-3,5H2,1H3,(H,21,23)(H,24,25)/t7-,8+/m0/s1

> <Ligand InChI Key>
BGDGHNSKANYMHF-JGVFFNPUSA-N

> <BindingDB MonomerID>
50358854

> <BindingDB Ligand Name>
CHEMBL1923440

> <Target Name Assigned by Curator or DataSource>
DNA Gyrase Subunit B

> <Target Source Organism According to Curator or DataSource>
Staphylococcus aureus

> <Ki (nM)>


> <IC50 (nM)>
<10.0

> <Kd (nM)>


> <EC50 (nM)>


> <kon (M-1-s-1)>


> <koff (s-1)>


> <pH>


> <Temp C>


> <Curation/DataSource>
ChEMBL

> <Article DOI>
10.1021/jm500462x

> <PMID>
24959892

> <PubChem AID>


> <Patent Number>


> <Authors>
Basarab, GS; Hill, PJ; Garner, CE; Hull, K; Green, O; Sherer, BA; Dangel, PB; Manchester, JI; Bist, S; Hauck, S; Zhou, F; Uria-Nickelsen, M; Illingworth, R; Alm, R; Rooney, M; Eakin, AE

> <Institution>
AstraZeneca

> <Link to Ligand in BindingDB>
http://www.bindingdb.org/bind/chemsearch/marvin/MolStructure.jsp?monomerid=50358854

> <Link to Ligand-Target Pair in BindingDB>
http://www.bindingdb.org/jsp/dbsearch/PrimarySearch_ki.jsp?energyterm=kJ/mole&tag=pol&polymerid=2626&target=DNA+Gyrase+Subunit+B&column=ki&startPg=0&Increment=50&submit=Search

> <Link to Ligand-Target Pair in BindingDB>
http://www.bindingdb.org/jsp/dbsearch/PrimarySearch_ki.jsp?energyterm=kJ/mole&tag=r21&monomerid=50358854&enzyme=DNA+Gyrase+Subunit+B&column=ki&startPg=0&Increment=50&submit=Search

> <Ligand HET ID in PDB>
07N

> <PDB ID(s) for Ligand-Target Complex>
3TTZ

> <PubChem CID>
11718729

> <PubChem SID>
136962878

> <ChEBI ID of Ligand>


> <ChEMBL ID of Ligand>
CHEMBL1923440

> <DrugBank ID of Ligand>


> <IUPHAR_GRAC ID of Ligand>


> <KEGG ID of Ligand>


> <ZINC ID of Ligand>
ZINC34642274

> <Number of Protein Chains in Target (>1 implies a multichain complex)>
1

> <BindingDB Target Chain Sequence>
MVTALSDVNNTDNYGAGQIQVLEGLEAVRKRPGMYIGSTSERGLHHLVWEIVDNSIDEALAGYANQIEVVIEKDNWIKVTDNGRGIPVDIQEKMGRPAVEVILTVLHAGGKFGGGGYKVSGGLHGVGSSVVNALSQDLEVYVHRNETIYHQAYKKGVPQFDLKEVGTTDKTGTVIRFKADGEIFTETTVYNYETLQQRIRELAFLNKGIQITLRDERDEENVREDSYHYEGGIKSYVELLNENKEPIHDEPIYIHQSKDDIEVEIAIQYNSGYATNLLTYANNIHTYEGGTHEDGFKRALTRVLNSYGLSSKIMKEEKDRLSGEDTREGMTAIISIKHGDPQFEGQTKTKLGNSEVRQVVDKLFSEHFERFLYENPQVARTVVEKGIMAARARVAAKKAREVTRRKSALDVASLPGKLADCSSKSPEECEIFLVEGDSAGGSTKSGRDSRTQAILPLRGKILNVEKARLDRILNNNEIRQMITAFGTGIGGDFDLAKARYHKIVIMTDADVDGAHIRTLLLTFFYRFMRPLIEAGYVYIAQPPLYKLTQGKQKYYVYNDRELDKLKSELNPTPKWSIARYKGLGEMNADQLWETTMNPEHRALLQVKLEDAIEADQTFEMLMGDVVENRRQFIEDNAVYANLDF

> <PDB ID(s) of Target Chain>


> <UniProt (SwissProt) Recommended Name of Target Chain>
DNA gyrase subunit B

> <UniProt (SwissProt) Entry Name of Target Chain>
GYRB_STAAU

> <UniProt (SwissProt) Primary ID of Target Chain>
P0A0K8

> <UniProt (SwissProt) Secondary ID(s) of Target Chain>
P20832

> <UniProt (SwissProt) Alternative ID(s) of Target Chain>


> <UniProt (TrEMBL) Submitted Name of Target Chain>


> <UniProt (TrEMBL) Entry Name of Target Chain>


> <UniProt (TrEMBL) Primary ID of Target Chain>


> <UniProt (TrEMBL) Secondary ID(s) of Target Chain>


> <UniProt (TrEMBL) Alternative ID(s) of Target Chain>


$$$$

  SciTegic02271514412D

 27 29  0  0  0  0            999 V2000
   20.0839   -2.7405    0.0000 C   0  0
   19.2598   -2.7780    0.0000 C   0  0
   18.8842   -3.5078    0.0000 C   0  0  2  0  0  0
   19.3244   -4.2006    0.0000 C   0  0  2  0  0  0
   20.1485   -4.1631    0.0000 C   0  0
   20.5325   -3.4329    0.0000 N   0  0
   18.0601   -3.5452    0.0000 N   0  0
   17.6156   -2.8502    0.0000 C   0  0
   16.7914   -2.8876    0.0000 C   0  0
   17.9953   -2.1177    0.0000 O   0  0
   21.3567   -3.3955    0.0000 C   0  0
   16.2800   -2.2398    0.0000 C   0  0
   15.5078   -2.5301    0.0000 C   0  0
   15.5453   -3.3543    0.0000 C   0  0
   16.3406   -3.5732    0.0000 N   0  0
   21.8693   -4.0383    0.0000 N   0  0
   22.6416   -3.7481    0.0000 C   0  0
   22.6042   -2.9239    0.0000 C   0  0
   21.8088   -2.7049    0.0000 S   0  0
   23.2489   -2.4091    0.0000 C   0  0
   24.0171   -2.7101    0.0000 O   0  0
   23.1255   -1.5934    0.0000 O   0  0
   14.9005   -3.8690    0.0000 C   0  0
   16.5013   -1.4451    0.0000 Cl  0  0
   14.8190   -2.0760    0.0000 Cl  0  0
   18.9436   -4.9324    0.0000 O   0  0
   18.1194   -4.9686    0.0000 C   0  0
  1  2  1  0
  1  6  1  0
  2  3  1  0
  3  4  1  0
  4  5  1  0
  5  6  1  0
  3  7  1  6
  7  8  1  0
  8  9  1  0
  8 10  2  0
  6 11  1  0
  9 12  2  0
 12 13  1  0
 13 14  2  0
 14 15  1  0
 15  9  1  0
 11 16  2  0
 16 17  1  0
 17 18  2  0
 18 19  1  0
 19 11  1  0
 18 20  1  0
 20 21  1  0
 20 22  2  0
 14 23  1  0
 12 24  1  0
 13 25  1  0
  4 26  1  6
 26 27  1  0
M  END
> <From> 
www.bindingDB.org

> <BindingDB Reactant_set_id>
50271381

> <Ligand InChI>
InChI=1S/C16H18Cl2N4O4S/c1-7-11(17)12(18)13(20-7)14(23)21-8-3-4-22(6-9(8)26-2)16-19-5-10(27-16)15(24)25/h5,8-9,20H,3-4,6H2,1-2H3,(H,21,23)(H,24,25)/t8-,9+/m1/s1

> <Ligand InChI Key>
VJLIVOQJQIHFHR-BDAKNGLRSA-N

> <BindingDB MonomerID>
50047316

> <BindingDB Ligand Name>
CHEMBL3314525

> <Target Name Assigned by Curator or DataSource>
DNA Gyrase Subunit B

> <Target Source Organism According to Curator or DataSource>
Staphylococcus aureus

> <Ki (nM)>


> <IC50 (nM)>
<10.0

> <Kd (nM)>


> <EC50 (nM)>


> <kon (M-1-s-1)>


> <koff (s-1)>


> <pH>


> <Temp C>


> <Curation/DataSource>
ChEMBL

> <Article DOI>
10.1021/jm500462x

> <PMID>
24959892

> <PubChem AID>


> <Patent Number>


> <Authors>
Basarab, GS; Hill, PJ; Garner, CE; Hull, K; Green, O; Sherer, BA; Dangel, PB; Manchester, JI; Bist, S; Hauck, S; Zhou, F; Uria-Nickelsen, M; Illingworth, R; Alm, R; Rooney, M; Eakin, AE

> <Institution>
AstraZeneca

> <Link to Ligand in BindingDB>
http://www.bindingdb.org/bind/chemsearch/marvin/MolStructure.jsp?monomerid=50047316

> <Link to Ligand-Target Pair in BindingDB>
http://www.bindingdb.org/jsp/dbsearch/PrimarySearch_ki.jsp?energyterm=kJ/mole&tag=pol&polymerid=2626&target=DNA+Gyrase+Subunit+B&column=ki&startPg=0&Increment=50&submit=Search

> <Link to Ligand-Target Pair in BindingDB>
http://www.bindingdb.org/jsp/dbsearch/PrimarySearch_ki.jsp?energyterm=kJ/mole&tag=r21&monomerid=50047316&enzyme=DNA+Gyrase+Subunit+B&column=ki&startPg=0&Increment=50&submit=Search

> <Ligand HET ID in PDB>


> <PDB ID(s) for Ligand-Target Complex>


> <PubChem CID>
11996131

> <PubChem SID>
103977996

> <ChEBI ID of Ligand>


> <ChEMBL ID of Ligand>
CHEMBL33559

> <DrugBank ID of Ligand>


> <IUPHAR_GRAC ID of Ligand>


> <KEGG ID of Ligand>


> <ZINC ID of Ligand>
ZINC03922463

> <Number of Protein Chains in Target (>1 implies a multichain complex)>
1

> <BindingDB Target Chain Sequence>
MVTALSDVNNTDNYGAGQIQVLEGLEAVRKRPGMYIGSTSERGLHHLVWEIVDNSIDEALAGYANQIEVVIEKDNWIKVTDNGRGIPVDIQEKMGRPAVEVILTVLHAGGKFGGGGYKVSGGLHGVGSSVVNALSQDLEVYVHRNETIYHQAYKKGVPQFDLKEVGTTDKTGTVIRFKADGEIFTETTVYNYETLQQRIRELAFLNKGIQITLRDERDEENVREDSYHYEGGIKSYVELLNENKEPIHDEPIYIHQSKDDIEVEIAIQYNSGYATNLLTYANNIHTYEGGTHEDGFKRALTRVLNSYGLSSKIMKEEKDRLSGEDTREGMTAIISIKHGDPQFEGQTKTKLGNSEVRQVVDKLFSEHFERFLYENPQVARTVVEKGIMAARARVAAKKAREVTRRKSALDVASLPGKLADCSSKSPEECEIFLVEGDSAGGSTKSGRDSRTQAILPLRGKILNVEKARLDRILNNNEIRQMITAFGTGIGGDFDLAKARYHKIVIMTDADVDGAHIRTLLLTFFYRFMRPLIEAGYVYIAQPPLYKLTQGKQKYYVYNDRELDKLKSELNPTPKWSIARYKGLGEMNADQLWETTMNPEHRALLQVKLEDAIEADQTFEMLMGDVVENRRQFIEDNAVYANLDF

> <PDB ID(s) of Target Chain>


> <UniProt (SwissProt) Recommended Name of Target Chain>
DNA gyrase subunit B

> <UniProt (SwissProt) Entry Name of Target Chain>
GYRB_STAAU

> <UniProt (SwissProt) Primary ID of Target Chain>
P0A0K8

> <UniProt (SwissProt) Secondary ID(s) of Target Chain>
P20832

> <UniProt (SwissProt) Alternative ID(s) of Target Chain>


> <UniProt (TrEMBL) Submitted Name of Target Chain>


> <UniProt (TrEMBL) Entry Name of Target Chain>


> <UniProt (TrEMBL) Primary ID of Target Chain>


> <UniProt (TrEMBL) Secondary ID(s) of Target Chain>


> <UniProt (TrEMBL) Alternative ID(s) of Target Chain>


$$$$

  SciTegic02271514412D

 27 29  0  0  0  0            999 V2000
   20.0839   -2.7405    0.0000 C   0  0
   19.2598   -2.7780    0.0000 C   0  0
   18.8842   -3.5078    0.0000 C   0  0  2  0  0  0
   19.3244   -4.2006    0.0000 C   0  0  2  0  0  0
   20.1485   -4.1631    0.0000 C   0  0
   20.5325   -3.4329    0.0000 N   0  0
   18.0601   -3.5452    0.0000 N   0  0
   17.6156   -2.8502    0.0000 C   0  0
   16.7914   -2.8876    0.0000 C   0  0
   17.9953   -2.1177    0.0000 O   0  0
   21.3567   -3.3955    0.0000 C   0  0
   16.2800   -2.2398    0.0000 C   0  0
   15.5078   -2.5301    0.0000 C   0  0
   15.5453   -3.3543    0.0000 C   0  0
   16.3406   -3.5732    0.0000 N   0  0
   21.8693   -4.0383    0.0000 N   0  0
   22.6416   -3.7481    0.0000 C   0  0
   22.6042   -2.9239    0.0000 C   0  0
   21.8088   -2.7049    0.0000 S   0  0
   23.2489   -2.4091    0.0000 C   0  0
   24.0171   -2.7101    0.0000 O   0  0
   23.1255   -1.5934    0.0000 O   0  0
   14.9005   -3.8690    0.0000 C   0  0
   16.5013   -1.4451    0.0000 Cl  0  0
   14.8190   -2.0760    0.0000 Cl  0  0
   18.9436   -4.9324    0.0000 O   0  0
   18.1194   -4.9686    0.0000 C   0  0
  1  2  1  0
  1  6  1  0
  2  3  1  0
  3  4  1  0
  4  5  1  0
  5  6  1  0
  3  7  1  6
  7  8  1  0
  8  9  1  0
  8 10  2  0
  6 11  1  0
  9 12  2  0
 12 13  1  0
 13 14  2  0
 14 15  1  0
 15  9  1  0
 11 16  2  0
 16 17  1  0
 17 18  2  0
 18 19  1  0
 19 11  1  0
 18 20  1  0
 20 21  1  0
 20 22  2  0
 14 23  1  0
 12 24  1  0
 13 25  1  0
  4 26  1  6
 26 27  1  0
M  END
> <From> 
www.bindingDB.org

> <BindingDB Reactant_set_id>
50271382

> <Ligand InChI>
InChI=1S/C16H18Cl2N4O4S/c1-7-11(17)12(18)13(20-7)14(23)21-8-3-4-22(6-9(8)26-2)16-19-5-10(27-16)15(24)25/h5,8-9,20H,3-4,6H2,1-2H3,(H,21,23)(H,24,25)/t8-,9+/m1/s1

> <Ligand InChI Key>
VJLIVOQJQIHFHR-BDAKNGLRSA-N

> <BindingDB MonomerID>
50047316

> <BindingDB Ligand Name>
CHEMBL3314525

> <Target Name Assigned by Curator or DataSource>
DNA Gyrase Subunit B

> <Target Source Organism According to Curator or DataSource>
Staphylococcus aureus

> <Ki (nM)>


> <IC50 (nM)>
<10.0

> <Kd (nM)>


> <EC50 (nM)>


> <kon (M-1-s-1)>


> <koff (s-1)>


> <pH>


> <Temp C>


> <Curation/DataSource>
ChEMBL

> <Article DOI>
10.1021/jm500462x

> <PMID>
24959892

> <PubChem AID>


> <Patent Number>


> <Authors>
Basarab, GS; Hill, PJ; Garner, CE; Hull, K; Green, O; Sherer, BA; Dangel, PB; Manchester, JI; Bist, S; Hauck, S; Zhou, F; Uria-Nickelsen, M; Illingworth, R; Alm, R; Rooney, M; Eakin, AE

> <Institution>
AstraZeneca

> <Link to Ligand in BindingDB>
http://www.bindingdb.org/bind/chemsearch/marvin/MolStructure.jsp?monomerid=50047316

> <Link to Ligand-Target Pair in BindingDB>
http://www.bindingdb.org/jsp/dbsearch/PrimarySearch_ki.jsp?energyterm=kJ/mole&tag=pol&polymerid=2626&target=DNA+Gyrase+Subunit+B&column=ki&startPg=0&Increment=50&submit=Search

> <Link to Ligand-Target Pair in BindingDB>
http://www.bindingdb.org/jsp/dbsearch/PrimarySearch_ki.jsp?energyterm=kJ/mole&tag=r21&monomerid=50047316&enzyme=DNA+Gyrase+Subunit+B&column=ki&startPg=0&Increment=50&submit=Search

> <Ligand HET ID in PDB>


> <PDB ID(s) for Ligand-Target Complex>


> <PubChem CID>
11996131

> <PubChem SID>
103977996

> <ChEBI ID of Ligand>


> <ChEMBL ID of Ligand>
CHEMBL33559

> <DrugBank ID of Ligand>


> <IUPHAR_GRAC ID of Ligand>


> <KEGG ID of Ligand>


> <ZINC ID of Ligand>
ZINC03922463

> <Number of Protein Chains in Target (>1 implies a multichain complex)>
1

> <BindingDB Target Chain Sequence>
MVTALSDVNNTDNYGAGQIQVLEGLEAVRKRPGMYIGSTSERGLHHLVWEIVDNSIDEALAGYANQIEVVIEKDNWIKVTDNGRGIPVDIQEKMGRPAVEVILTVLHAGGKFGGGGYKVSGGLHGVGSSVVNALSQDLEVYVHRNETIYHQAYKKGVPQFDLKEVGTTDKTGTVIRFKADGEIFTETTVYNYETLQQRIRELAFLNKGIQITLRDERDEENVREDSYHYEGGIKSYVELLNENKEPIHDEPIYIHQSKDDIEVEIAIQYNSGYATNLLTYANNIHTYEGGTHEDGFKRALTRVLNSYGLSSKIMKEEKDRLSGEDTREGMTAIISIKHGDPQFEGQTKTKLGNSEVRQVVDKLFSEHFERFLYENPQVARTVVEKGIMAARARVAAKKAREVTRRKSALDVASLPGKLADCSSKSPEECEIFLVEGDSAGGSTKSGRDSRTQAILPLRGKILNVEKARLDRILNNNEIRQMITAFGTGIGGDFDLAKARYHKIVIMTDADVDGAHIRTLLLTFFYRFMRPLIEAGYVYIAQPPLYKLTQGKQKYYVYNDRELDKLKSELNPTPKWSIARYKGLGEMNADQLWETTMNPEHRALLQVKLEDAIEADQTFEMLMGDVVENRRQFIEDNAVYANLDF

> <PDB ID(s) of Target Chain>


> <UniProt (SwissProt) Recommended Name of Target Chain>
DNA gyrase subunit B

> <UniProt (SwissProt) Entry Name of Target Chain>
GYRB_STAAU

> <UniProt (SwissProt) Primary ID of Target Chain>
P0A0K8

> <UniProt (SwissProt) Secondary ID(s) of Target Chain>
P20832

> <UniProt (SwissProt) Alternative ID(s) of Target Chain>


> <UniProt (TrEMBL) Submitted Name of Target Chain>


> <UniProt (TrEMBL) Entry Name of Target Chain>


> <UniProt (TrEMBL) Primary ID of Target Chain>


> <UniProt (TrEMBL) Secondary ID(s) of Target Chain>


> <UniProt (TrEMBL) Alternative ID(s) of Target Chain>


$$$$

  SciTegic02271514412D

 28 30  0  0  0  0            999 V2000
   20.0838   -2.7405    0.0000 C   0  0
   19.2597   -2.7780    0.0000 C   0  0
   18.8841   -3.5078    0.0000 C   0  0  2  0  0  0
   19.3243   -4.2005    0.0000 C   0  0  2  0  0  0
   20.1484   -4.1631    0.0000 C   0  0
   20.5323   -3.4329    0.0000 N   0  0
   18.0600   -3.5451    0.0000 N   0  0
   17.6154   -2.8502    0.0000 C   0  0
   16.7913   -2.8876    0.0000 C   0  0
   17.9951   -2.1177    0.0000 O   0  0
   21.3565   -3.3955    0.0000 C   0  0
   16.2799   -2.2398    0.0000 C   0  0
   15.5077   -2.5300    0.0000 C   0  0
   15.5452   -3.3542    0.0000 C   0  0
   16.3405   -3.5732    0.0000 N   0  0
   21.8692   -4.0383    0.0000 N   0  0
   22.6415   -3.7481    0.0000 C   0  0
   22.6040   -2.9239    0.0000 C   0  0
   21.8086   -2.7049    0.0000 S   0  0
   23.2487   -2.4091    0.0000 C   0  0
   24.0169   -2.7100    0.0000 O   0  0
   23.1254   -1.5934    0.0000 O   0  0
   14.9004   -3.8690    0.0000 C   0  0
   16.5012   -1.4451    0.0000 Cl  0  0
   14.8189   -2.0759    0.0000 Cl  0  0
   18.9435   -4.9324    0.0000 O   0  0
   19.3912   -5.6347    0.0000 C   0  0
   19.0069   -6.3736    0.0000 C   0  0
  1  2  1  0
  1  6  1  0
  2  3  1  0
  3  4  1  0
  4  5  1  0
  5  6  1  0
  3  7  1  6
  7  8  1  0
  8  9  1  0
  8 10  2  0
  6 11  1  0
  9 12  2  0
 12 13  1  0
 13 14  2  0
 14 15  1  0
 15  9  1  0
 11 16  2  0
 16 17  1  0
 17 18  2  0
 18 19  1  0
 19 11  1  0
 18 20  1  0
 20 21  1  0
 20 22  2  0
 14 23  1  0
 12 24  1  0
 13 25  1  0
  4 26  1  6
 26 27  1  0
 27 28  1  0
M  END
> <From> 
www.bindingDB.org

> <BindingDB Reactant_set_id>
50271387

> <Ligand InChI>
InChI=1S/C17H20Cl2N4O4S/c1-3-27-10-7-23(17-20-6-11(28-17)16(25)26)5-4-9(10)22-15(24)14-13(19)12(18)8(2)21-14/h6,9-10,21H,3-5,7H2,1-2H3,(H,22,24)(H,25,26)/t9-,10+/m1/s1

> <Ligand InChI Key>
IQXLGSIFNVTMHP-ZJUUUORDSA-N

> <BindingDB MonomerID>
50047321

> <BindingDB Ligand Name>
CHEMBL3314530

> <Target Name Assigned by Curator or DataSource>
DNA Gyrase Subunit B

> <Target Source Organism According to Curator or DataSource>
Staphylococcus aureus

> <Ki (nM)>


> <IC50 (nM)>
<10.0

> <Kd (nM)>


> <EC50 (nM)>


> <kon (M-1-s-1)>


> <koff (s-1)>


> <pH>


> <Temp C>


> <Curation/DataSource>
ChEMBL

> <Article DOI>
10.1021/jm500462x

> <PMID>
24959892

> <PubChem AID>


> <Patent Number>


> <Authors>
Basarab, GS; Hill, PJ; Garner, CE; Hull, K; Green, O; Sherer, BA; Dangel, PB; Manchester, JI; Bist, S; Hauck, S; Zhou, F; Uria-Nickelsen, M; Illingworth, R; Alm, R; Rooney, M; Eakin, AE

> <Institution>
AstraZeneca

> <Link to Ligand in BindingDB>
http://www.bindingdb.org/bind/chemsearch/marvin/MolStructure.jsp?monomerid=50047321

> <Link to Ligand-Target Pair in BindingDB>
http://www.bindingdb.org/jsp/dbsearch/PrimarySearch_ki.jsp?energyterm=kJ/mole&tag=pol&polymerid=2626&target=DNA+Gyrase+Subunit+B&column=ki&startPg=0&Increment=50&submit=Search

> <Link to Ligand-Target Pair in BindingDB>
http://www.bindingdb.org/jsp/dbsearch/PrimarySearch_ki.jsp?energyterm=kJ/mole&tag=r21&monomerid=50047321&enzyme=DNA+Gyrase+Subunit+B&column=ki&startPg=0&Increment=50&submit=Search

> <Ligand HET ID in PDB>


> <PDB ID(s) for Ligand-Target Complex>


> <PubChem CID>
89699203

> <PubChem SID>
103978001

> <ChEBI ID of Ligand>


> <ChEMBL ID of Ligand>
CHEMBL33293

> <DrugBank ID of Ligand>


> <IUPHAR_GRAC ID of Ligand>


> <KEGG ID of Ligand>


> <ZINC ID of Ligand>
ZINC03922479

> <Number of Protein Chains in Target (>1 implies a multichain complex)>
1

> <BindingDB Target Chain Sequence>
MVTALSDVNNTDNYGAGQIQVLEGLEAVRKRPGMYIGSTSERGLHHLVWEIVDNSIDEALAGYANQIEVVIEKDNWIKVTDNGRGIPVDIQEKMGRPAVEVILTVLHAGGKFGGGGYKVSGGLHGVGSSVVNALSQDLEVYVHRNETIYHQAYKKGVPQFDLKEVGTTDKTGTVIRFKADGEIFTETTVYNYETLQQRIRELAFLNKGIQITLRDERDEENVREDSYHYEGGIKSYVELLNENKEPIHDEPIYIHQSKDDIEVEIAIQYNSGYATNLLTYANNIHTYEGGTHEDGFKRALTRVLNSYGLSSKIMKEEKDRLSGEDTREGMTAIISIKHGDPQFEGQTKTKLGNSEVRQVVDKLFSEHFERFLYENPQVARTVVEKGIMAARARVAAKKAREVTRRKSALDVASLPGKLADCSSKSPEECEIFLVEGDSAGGSTKSGRDSRTQAILPLRGKILNVEKARLDRILNNNEIRQMITAFGTGIGGDFDLAKARYHKIVIMTDADVDGAHIRTLLLTFFYRFMRPLIEAGYVYIAQPPLYKLTQGKQKYYVYNDRELDKLKSELNPTPKWSIARYKGLGEMNADQLWETTMNPEHRALLQVKLEDAIEADQTFEMLMGDVVENRRQFIEDNAVYANLDF

> <PDB ID(s) of Target Chain>


> <UniProt (SwissProt) Recommended Name of Target Chain>
DNA gyrase subunit B

> <UniProt (SwissProt) Entry Name of Target Chain>
GYRB_STAAU

> <UniProt (SwissProt) Primary ID of Target Chain>
P0A0K8

> <UniProt (SwissProt) Secondary ID(s) of Target Chain>
P20832

> <UniProt (SwissProt) Alternative ID(s) of Target Chain>


> <UniProt (TrEMBL) Submitted Name of Target Chain>


> <UniProt (TrEMBL) Entry Name of Target Chain>


> <UniProt (TrEMBL) Primary ID of Target Chain>


> <UniProt (TrEMBL) Secondary ID(s) of Target Chain>


> <UniProt (TrEMBL) Alternative ID(s) of Target Chain>


$$$$

  SciTegic02271514412D

 29 31  0  0  0  0            999 V2000
   20.0836   -2.7405    0.0000 C   0  0
   19.2595   -2.7780    0.0000 C   0  0
   18.8839   -3.5078    0.0000 C   0  0  2  0  0  0
   19.3241   -4.2005    0.0000 C   0  0  2  0  0  0
   20.1482   -4.1630    0.0000 C   0  0
   20.5322   -3.4328    0.0000 N   0  0
   18.0598   -3.5451    0.0000 N   0  0
   17.6153   -2.8501    0.0000 C   0  0
   16.7911   -2.8876    0.0000 C   0  0
   17.9950   -2.1177    0.0000 O   0  0
   21.3563   -3.3955    0.0000 C   0  0
   16.2798   -2.2398    0.0000 C   0  0
   15.5076   -2.5300    0.0000 C   0  0
   15.5450   -3.3542    0.0000 C   0  0
   16.3403   -3.5732    0.0000 N   0  0
   21.8690   -4.0383    0.0000 N   0  0
   22.6413   -3.7480    0.0000 C   0  0
   22.6038   -2.9238    0.0000 C   0  0
   21.8084   -2.7049    0.0000 S   0  0
   23.2485   -2.4091    0.0000 C   0  0
   24.0167   -2.7100    0.0000 O   0  0
   23.1252   -1.5934    0.0000 O   0  0
   14.9002   -3.8690    0.0000 C   0  0
   16.5011   -1.4451    0.0000 Cl  0  0
   14.8188   -2.0759    0.0000 Cl  0  0
   18.9433   -4.9323    0.0000 O   0  0
   19.3911   -5.6347    0.0000 C   0  0
   19.0067   -6.3735    0.0000 C   0  0
   19.4544   -7.0759    0.0000 C   0  0
  1  2  1  0
  1  6  1  0
  2  3  1  0
  3  4  1  0
  4  5  1  0
  5  6  1  0
  3  7  1  6
  7  8  1  0
  8  9  1  0
  8 10  2  0
  6 11  1  0
  9 12  2  0
 12 13  1  0
 13 14  2  0
 14 15  1  0
 15  9  1  0
 11 16  2  0
 16 17  1  0
 17 18  2  0
 18 19  1  0
 19 11  1  0
 18 20  1  0
 20 21  1  0
 20 22  2  0
 14 23  1  0
 12 24  1  0
 13 25  1  0
  4 26  1  6
 26 27  1  0
 27 28  1  0
 28 29  2  0
M  END
> <From> 
www.bindingDB.org

> <BindingDB Reactant_set_id>
50271388

> <Ligand InChI>
InChI=1S/C18H20Cl2N4O4S/c1-3-6-28-11-8-24(18-21-7-12(29-18)17(26)27)5-4-10(11)23-16(25)15-14(20)13(19)9(2)22-15/h3,7,10-11,22H,1,4-6,8H2,2H3,(H,23,25)(H,26,27)/t10-,11+/m1/s1

> <Ligand InChI Key>
FAQGXBJUPSKFSZ-MNOVXSKESA-N

> <BindingDB MonomerID>
50047322

> <BindingDB Ligand Name>
CHEMBL3314531

> <Target Name Assigned by Curator or DataSource>
DNA Gyrase Subunit B

> <Target Source Organism According to Curator or DataSource>
Staphylococcus aureus

> <Ki (nM)>


> <IC50 (nM)>
<10.0

> <Kd (nM)>


> <EC50 (nM)>


> <kon (M-1-s-1)>


> <koff (s-1)>


> <pH>


> <Temp C>


> <Curation/DataSource>
ChEMBL

> <Article DOI>
10.1021/jm500462x

> <PMID>
24959892

> <PubChem AID>


> <Patent Number>


> <Authors>
Basarab, GS; Hill, PJ; Garner, CE; Hull, K; Green, O; Sherer, BA; Dangel, PB; Manchester, JI; Bist, S; Hauck, S; Zhou, F; Uria-Nickelsen, M; Illingworth, R; Alm, R; Rooney, M; Eakin, AE

> <Institution>
AstraZeneca

> <Link to Ligand in BindingDB>
http://www.bindingdb.org/bind/chemsearch/marvin/MolStructure.jsp?monomerid=50047322

> <Link to Ligand-Target Pair in BindingDB>
http://www.bindingdb.org/jsp/dbsearch/PrimarySearch_ki.jsp?energyterm=kJ/mole&tag=pol&polymerid=2626&target=DNA+Gyrase+Subunit+B&column=ki&startPg=0&Increment=50&submit=Search

> <Link to Ligand-Target Pair in BindingDB>
http://www.bindingdb.org/jsp/dbsearch/PrimarySearch_ki.jsp?energyterm=kJ/mole&tag=r21&monomerid=50047322&enzyme=DNA+Gyrase+Subunit+B&column=ki&startPg=0&Increment=50&submit=Search

> <Ligand HET ID in PDB>


> <PDB ID(s) for Ligand-Target Complex>


> <PubChem CID>
89698950

> <PubChem SID>
103978002

> <ChEBI ID of Ligand>


> <ChEMBL ID of Ligand>
CHEMBL34100

> <DrugBank ID of Ligand>


> <IUPHAR_GRAC ID of Ligand>


> <KEGG ID of Ligand>


> <ZINC ID of Ligand>
ZINC03787682

> <Number of Protein Chains in Target (>1 implies a multichain complex)>
1

> <BindingDB Target Chain Sequence>
MVTALSDVNNTDNYGAGQIQVLEGLEAVRKRPGMYIGSTSERGLHHLVWEIVDNSIDEALAGYANQIEVVIEKDNWIKVTDNGRGIPVDIQEKMGRPAVEVILTVLHAGGKFGGGGYKVSGGLHGVGSSVVNALSQDLEVYVHRNETIYHQAYKKGVPQFDLKEVGTTDKTGTVIRFKADGEIFTETTVYNYETLQQRIRELAFLNKGIQITLRDERDEENVREDSYHYEGGIKSYVELLNENKEPIHDEPIYIHQSKDDIEVEIAIQYNSGYATNLLTYANNIHTYEGGTHEDGFKRALTRVLNSYGLSSKIMKEEKDRLSGEDTREGMTAIISIKHGDPQFEGQTKTKLGNSEVRQVVDKLFSEHFERFLYENPQVARTVVEKGIMAARARVAAKKAREVTRRKSALDVASLPGKLADCSSKSPEECEIFLVEGDSAGGSTKSGRDSRTQAILPLRGKILNVEKARLDRILNNNEIRQMITAFGTGIGGDFDLAKARYHKIVIMTDADVDGAHIRTLLLTFFYRFMRPLIEAGYVYIAQPPLYKLTQGKQKYYVYNDRELDKLKSELNPTPKWSIARYKGLGEMNADQLWETTMNPEHRALLQVKLEDAIEADQTFEMLMGDVVENRRQFIEDNAVYANLDF

> <PDB ID(s) of Target Chain>


> <UniProt (SwissProt) Recommended Name of Target Chain>
DNA gyrase subunit B

> <UniProt (SwissProt) Entry Name of Target Chain>
GYRB_STAAU

> <UniProt (SwissProt) Primary ID of Target Chain>
P0A0K8

> <UniProt (SwissProt) Secondary ID(s) of Target Chain>
P20832

> <UniProt (SwissProt) Alternative ID(s) of Target Chain>


> <UniProt (TrEMBL) Submitted Name of Target Chain>


> <UniProt (TrEMBL) Entry Name of Target Chain>


> <UniProt (TrEMBL) Primary ID of Target Chain>


> <UniProt (TrEMBL) Secondary ID(s) of Target Chain>


> <UniProt (TrEMBL) Alternative ID(s) of Target Chain>


$$$$

  SciTegic02271514412D

 29 31  0  0  0  0            999 V2000
   10.6301   -8.7662    0.0000 C   0  0  2  0  0  0
    8.2471   -6.7034    0.0000 Cl  0  0
    7.2537   -7.7885    0.0000 C   0  0
   10.7529  -11.6321    0.0000 C   0  0
    9.8059   -8.8036    0.0000 N   0  0
   13.6153   -9.2968    0.0000 N   0  0
   11.1373  -10.8932    0.0000 C   0  0
    7.2911   -8.6126    0.0000 C   0  0
    8.5372   -8.1460    0.0000 C   0  0
    6.6463   -9.1275    0.0000 C   0  0
   14.3875   -9.0066    0.0000 C   0  0
   13.5548   -7.9633    0.0000 S   0  0
    9.3615   -8.1086    0.0000 C   0  0
   12.2784   -8.6913    0.0000 N   0  0
   11.8944   -9.4216    0.0000 C   0  0
   11.0057   -8.0363    0.0000 C   0  0
    8.0259   -7.4983    0.0000 C   0  0
   10.6896  -10.1908    0.0000 O   0  0
   11.8298   -7.9990    0.0000 C   0  0
   14.3501   -8.1823    0.0000 C   0  0
   11.0703   -9.4589    0.0000 C   0  0  2  0  0  0
    9.7411   -7.3761    0.0000 O   0  0
   15.7629   -7.9685    0.0000 O   0  0
    8.0865   -8.8317    0.0000 N   0  0
   14.9948   -7.6676    0.0000 C   0  0
   13.1025   -8.6538    0.0000 C   0  0
    6.5649   -7.3343    0.0000 Cl  0  0
   14.8713   -6.8518    0.0000 O   0  0
   10.3722  -12.3639    0.0000 C   0  0
  8 10  1  0
  5 13  1  0
 21 18  1  6
 24  9  1  0
 17  3  1  0
 12 26  1  0
 19 16  1  0
  9 17  2  0
 25 28  2  0
 16  1  1  0
  6 11  1  0
 19 14  1  0
 26  6  2  0
 20 25  1  0
  3 27  1  0
  1  5  1  6
  7  4  1  0
 13  9  1  0
 11 20  2  0
 18  7  1  0
 21 15  1  0
 17  2  1  0
 15 14  1  0
 25 23  1  0
 14 26  1  0
 13 22  2  0
  3  8  2  0
  8 24  1  0
  1 21  1  0
 20 12  1  0
  4 29  3  0
M  END
> <From> 
www.bindingDB.org

> <BindingDB Reactant_set_id>
50271389

> <Ligand InChI>
InChI=1S/C18H18Cl2N4O4S/c1-3-6-28-11-8-24(18-21-7-12(29-18)17(26)27)5-4-10(11)23-16(25)15-14(20)13(19)9(2)22-15/h1,7,10-11,22H,4-6,8H2,2H3,(H,23,25)(H,26,27)/t10-,11+/m1/s1

> <Ligand InChI Key>
UWMRJZLOIXXBAL-MNOVXSKESA-N

> <BindingDB MonomerID>
50047323

> <BindingDB Ligand Name>
CHEMBL3314532

> <Target Name Assigned by Curator or DataSource>
DNA Gyrase Subunit B

> <Target Source Organism According to Curator or DataSource>
Staphylococcus aureus

> <Ki (nM)>


> <IC50 (nM)>
<10.0

> <Kd (nM)>


> <EC50 (nM)>


> <kon (M-1-s-1)>


> <koff (s-1)>


> <pH>


> <Temp C>


> <Curation/DataSource>
ChEMBL

> <Article DOI>
10.1021/jm500462x

> <PMID>
24959892

> <PubChem AID>


> <Patent Number>


> <Authors>
Basarab, GS; Hill, PJ; Garner, CE; Hull, K; Green, O; Sherer, BA; Dangel, PB; Manchester, JI; Bist, S; Hauck, S; Zhou, F; Uria-Nickelsen, M; Illingworth, R; Alm, R; Rooney, M; Eakin, AE

> <Institution>
AstraZeneca

> <Link to Ligand in BindingDB>
http://www.bindingdb.org/bind/chemsearch/marvin/MolStructure.jsp?monomerid=50047323

> <Link to Ligand-Target Pair in BindingDB>
http://www.bindingdb.org/jsp/dbsearch/PrimarySearch_ki.jsp?energyterm=kJ/mole&tag=pol&polymerid=2626&target=DNA+Gyrase+Subunit+B&column=ki&startPg=0&Increment=50&submit=Search

> <Link to Ligand-Target Pair in BindingDB>
http://www.bindingdb.org/jsp/dbsearch/PrimarySearch_ki.jsp?energyterm=kJ/mole&tag=r21&monomerid=50047323&enzyme=DNA+Gyrase+Subunit+B&column=ki&startPg=0&Increment=50&submit=Search

> <Ligand HET ID in PDB>


> <PDB ID(s) for Ligand-Target Complex>


> <PubChem CID>
87496344

> <PubChem SID>
103978003

> <ChEBI ID of Ligand>


> <ChEMBL ID of Ligand>
CHEMBL287679

> <DrugBank ID of Ligand>


> <IUPHAR_GRAC ID of Ligand>


> <KEGG ID of Ligand>


> <ZINC ID of Ligand>
ZINC03922475

> <Number of Protein Chains in Target (>1 implies a multichain complex)>
1

> <BindingDB Target Chain Sequence>
MVTALSDVNNTDNYGAGQIQVLEGLEAVRKRPGMYIGSTSERGLHHLVWEIVDNSIDEALAGYANQIEVVIEKDNWIKVTDNGRGIPVDIQEKMGRPAVEVILTVLHAGGKFGGGGYKVSGGLHGVGSSVVNALSQDLEVYVHRNETIYHQAYKKGVPQFDLKEVGTTDKTGTVIRFKADGEIFTETTVYNYETLQQRIRELAFLNKGIQITLRDERDEENVREDSYHYEGGIKSYVELLNENKEPIHDEPIYIHQSKDDIEVEIAIQYNSGYATNLLTYANNIHTYEGGTHEDGFKRALTRVLNSYGLSSKIMKEEKDRLSGEDTREGMTAIISIKHGDPQFEGQTKTKLGNSEVRQVVDKLFSEHFERFLYENPQVARTVVEKGIMAARARVAAKKAREVTRRKSALDVASLPGKLADCSSKSPEECEIFLVEGDSAGGSTKSGRDSRTQAILPLRGKILNVEKARLDRILNNNEIRQMITAFGTGIGGDFDLAKARYHKIVIMTDADVDGAHIRTLLLTFFYRFMRPLIEAGYVYIAQPPLYKLTQGKQKYYVYNDRELDKLKSELNPTPKWSIARYKGLGEMNADQLWETTMNPEHRALLQVKLEDAIEADQTFEMLMGDVVENRRQFIEDNAVYANLDF

> <PDB ID(s) of Target Chain>


> <UniProt (SwissProt) Recommended Name of Target Chain>
DNA gyrase subunit B

> <UniProt (SwissProt) Entry Name of Target Chain>
GYRB_STAAU

> <UniProt (SwissProt) Primary ID of Target Chain>
P0A0K8

> <UniProt (SwissProt) Secondary ID(s) of Target Chain>
P20832

> <UniProt (SwissProt) Alternative ID(s) of Target Chain>


> <UniProt (TrEMBL) Submitted Name of Target Chain>


> <UniProt (TrEMBL) Entry Name of Target Chain>


> <UniProt (TrEMBL) Primary ID of Target Chain>


> <UniProt (TrEMBL) Secondary ID(s) of Target Chain>


> <UniProt (TrEMBL) Alternative ID(s) of Target Chain>


$$$$

  SciTegic02271514412D

 30 32  0  0  0  0            999 V2000
    8.0881   -2.9280    0.0000 C   0  0
    7.2640   -2.9655    0.0000 C   0  0
    6.8883   -3.6953    0.0000 C   0  0  2  0  0  0
    7.3286   -4.3881    0.0000 C   0  0  2  0  0  0
    8.1527   -4.3506    0.0000 C   0  0
    8.5367   -3.6205    0.0000 N   0  0
    6.0642   -3.7328    0.0000 N   0  0
    5.6197   -3.0377    0.0000 C   0  0
    4.7956   -3.0751    0.0000 C   0  0
    5.9994   -2.3052    0.0000 O   0  0
    9.3609   -3.5830    0.0000 C   0  0
    4.2842   -2.4273    0.0000 C   0  0
    3.5120   -2.7176    0.0000 C   0  0
    3.5494   -3.5418    0.0000 C   0  0
    4.3447   -3.7608    0.0000 N   0  0
    9.8735   -4.2259    0.0000 N   0  0
   10.6458   -3.9356    0.0000 C   0  0
   10.6084   -3.1114    0.0000 C   0  0
    9.8130   -2.8924    0.0000 S   0  0
   11.2531   -2.5966    0.0000 C   0  0
   12.0213   -2.8976    0.0000 O   0  0
   11.1297   -1.7810    0.0000 O   0  0
    2.9046   -4.0565    0.0000 C   0  0
    4.5055   -1.6326    0.0000 Cl  0  0
    2.8232   -2.2634    0.0000 Cl  0  0
    6.9478   -5.1200    0.0000 O   0  0
    7.3912   -5.8157    0.0000 C   0  0
    7.0105   -6.5476    0.0000 C   0  0
    7.4539   -7.2433    0.0000 O   0  0
    7.0731   -7.9751    0.0000 C   0  0
  1  2  1  0
  1  6  1  0
  2  3  1  0
  3  4  1  0
  4  5  1  0
  5  6  1  0
  3  7  1  6
  7  8  1  0
  8  9  1  0
  8 10  2  0
  6 11  1  0
  9 12  2  0
 12 13  1  0
 13 14  2  0
 14 15  1  0
 15  9  1  0
 11 16  2  0
 16 17  1  0
 17 18  2  0
 18 19  1  0
 19 11  1  0
 18 20  1  0
 20 21  1  0
 20 22  2  0
 14 23  1  0
 12 24  1  0
 13 25  1  0
  4 26  1  6
 26 27  1  0
 27 28  1  0
 28 29  1  0
 29 30  1  0
M  END
> <From> 
www.bindingDB.org

> <BindingDB Reactant_set_id>
50271390

> <Ligand InChI>
InChI=1S/C18H22Cl2N4O5S/c1-9-13(19)14(20)15(22-9)16(25)23-10-3-4-24(8-11(10)29-6-5-28-2)18-21-7-12(30-18)17(26)27/h7,10-11,22H,3-6,8H2,1-2H3,(H,23,25)(H,26,27)/t10-,11+/m1/s1

> <Ligand InChI Key>
KFCCSYBFBXJLKC-MNOVXSKESA-N

> <BindingDB MonomerID>
50047324

> <BindingDB Ligand Name>
CHEMBL3314533

> <Target Name Assigned by Curator or DataSource>
DNA Gyrase Subunit B

> <Target Source Organism According to Curator or DataSource>
Staphylococcus aureus

> <Ki (nM)>


> <IC50 (nM)>
<10.0

> <Kd (nM)>


> <EC50 (nM)>


> <kon (M-1-s-1)>


> <koff (s-1)>


> <pH>


> <Temp C>


> <Curation/DataSource>
ChEMBL

> <Article DOI>
10.1021/jm500462x

> <PMID>
24959892

> <PubChem AID>


> <Patent Number>


> <Authors>
Basarab, GS; Hill, PJ; Garner, CE; Hull, K; Green, O; Sherer, BA; Dangel, PB; Manchester, JI; Bist, S; Hauck, S; Zhou, F; Uria-Nickelsen, M; Illingworth, R; Alm, R; Rooney, M; Eakin, AE

> <Institution>
AstraZeneca

> <Link to Ligand in BindingDB>
http://www.bindingdb.org/bind/chemsearch/marvin/MolStructure.jsp?monomerid=50047324

> <Link to Ligand-Target Pair in BindingDB>
http://www.bindingdb.org/jsp/dbsearch/PrimarySearch_ki.jsp?energyterm=kJ/mole&tag=pol&polymerid=2626&target=DNA+Gyrase+Subunit+B&column=ki&startPg=0&Increment=50&submit=Search

> <Link to Ligand-Target Pair in BindingDB>
http://www.bindingdb.org/jsp/dbsearch/PrimarySearch_ki.jsp?energyterm=kJ/mole&tag=r21&monomerid=50047324&enzyme=DNA+Gyrase+Subunit+B&column=ki&startPg=0&Increment=50&submit=Search

> <Ligand HET ID in PDB>


> <PDB ID(s) for Ligand-Target Complex>


> <PubChem CID>
89699316

> <PubChem SID>
103978004

> <ChEBI ID of Ligand>


> <ChEMBL ID of Ligand>
CHEMBL30954

> <DrugBank ID of Ligand>


> <IUPHAR_GRAC ID of Ligand>


> <KEGG ID of Ligand>


> <ZINC ID of Ligand>
ZINC13827207

> <Number of Protein Chains in Target (>1 implies a multichain complex)>
1

> <BindingDB Target Chain Sequence>
MVTALSDVNNTDNYGAGQIQVLEGLEAVRKRPGMYIGSTSERGLHHLVWEIVDNSIDEALAGYANQIEVVIEKDNWIKVTDNGRGIPVDIQEKMGRPAVEVILTVLHAGGKFGGGGYKVSGGLHGVGSSVVNALSQDLEVYVHRNETIYHQAYKKGVPQFDLKEVGTTDKTGTVIRFKADGEIFTETTVYNYETLQQRIRELAFLNKGIQITLRDERDEENVREDSYHYEGGIKSYVELLNENKEPIHDEPIYIHQSKDDIEVEIAIQYNSGYATNLLTYANNIHTYEGGTHEDGFKRALTRVLNSYGLSSKIMKEEKDRLSGEDTREGMTAIISIKHGDPQFEGQTKTKLGNSEVRQVVDKLFSEHFERFLYENPQVARTVVEKGIMAARARVAAKKAREVTRRKSALDVASLPGKLADCSSKSPEECEIFLVEGDSAGGSTKSGRDSRTQAILPLRGKILNVEKARLDRILNNNEIRQMITAFGTGIGGDFDLAKARYHKIVIMTDADVDGAHIRTLLLTFFYRFMRPLIEAGYVYIAQPPLYKLTQGKQKYYVYNDRELDKLKSELNPTPKWSIARYKGLGEMNADQLWETTMNPEHRALLQVKLEDAIEADQTFEMLMGDVVENRRQFIEDNAVYANLDF

> <PDB ID(s) of Target Chain>


> <UniProt (SwissProt) Recommended Name of Target Chain>
DNA gyrase subunit B

> <UniProt (SwissProt) Entry Name of Target Chain>
GYRB_STAAU

> <UniProt (SwissProt) Primary ID of Target Chain>
P0A0K8

> <UniProt (SwissProt) Secondary ID(s) of Target Chain>
P20832

> <UniProt (SwissProt) Alternative ID(s) of Target Chain>


> <UniProt (TrEMBL) Submitted Name of Target Chain>


> <UniProt (TrEMBL) Entry Name of Target Chain>


> <UniProt (TrEMBL) Primary ID of Target Chain>


> <UniProt (TrEMBL) Secondary ID(s) of Target Chain>


> <UniProt (TrEMBL) Alternative ID(s) of Target Chain>


$$$$

  SciTegic02271514412D

 26 28  0  0  0  0            999 V2000
    8.0882   -2.9280    0.0000 C   0  0
    7.2640   -2.9655    0.0000 C   0  0
    6.8884   -3.6953    0.0000 C   0  0  2  0  0  0
    7.3287   -4.3881    0.0000 C   0  0  2  0  0  0
    8.1528   -4.3506    0.0000 C   0  0
    8.5367   -3.6205    0.0000 N   0  0
    6.0643   -3.7328    0.0000 N   0  0
    5.6198   -3.0377    0.0000 C   0  0
    4.7956   -3.0751    0.0000 C   0  0
    5.9995   -2.3052    0.0000 O   0  0
    9.3609   -3.5831    0.0000 C   0  0
    4.2842   -2.4273    0.0000 C   0  0
    3.5120   -2.7177    0.0000 C   0  0
    3.5494   -3.5419    0.0000 C   0  0
    4.3448   -3.7608    0.0000 N   0  0
    9.8736   -4.2259    0.0000 N   0  0
   10.6459   -3.9356    0.0000 C   0  0
   10.6084   -3.1114    0.0000 C   0  0
    9.8131   -2.8924    0.0000 S   0  0
   11.2531   -2.5966    0.0000 C   0  0
   12.0213   -2.8977    0.0000 O   0  0
   11.1298   -1.7810    0.0000 O   0  0
    2.9046   -4.0565    0.0000 C   0  0
    4.5055   -1.6326    0.0000 Cl  0  0
    2.8233   -2.2635    0.0000 Cl  0  0
    6.9478   -5.1200    0.0000 Cl  0  0
  1  2  1  0
  1  6  1  0
  2  3  1  0
  3  4  1  0
  4  5  1  0
  5  6  1  0
  3  7  1  6
  7  8  1  0
  8  9  1  0
  8 10  2  0
  6 11  1  0
  9 12  2  0
 12 13  1  0
 13 14  2  0
 14 15  1  0
 15  9  1  0
 11 16  2  0
 16 17  1  0
 17 18  2  0
 18 19  1  0
 19 11  1  0
 18 20  1  0
 20 21  1  0
 20 22  2  0
 14 23  1  0
 12 24  1  0
 13 25  1  0
  4 26  1  6
M  END
> <From> 
www.bindingDB.org

> <BindingDB Reactant_set_id>
50271394

> <Ligand InChI>
InChI=1S/C15H15Cl3N4O3S/c1-6-10(17)11(18)12(20-6)13(23)21-8-2-3-22(5-7(8)16)15-19-4-9(26-15)14(24)25/h4,7-8,20H,2-3,5H2,1H3,(H,21,23)(H,24,25)/t7-,8+/m0/s1

> <Ligand InChI Key>
ZGCDZLDEEWFKEE-JGVFFNPUSA-N

> <BindingDB MonomerID>
50047328

> <BindingDB Ligand Name>
CHEMBL3314537

> <Target Name Assigned by Curator or DataSource>
DNA Gyrase Subunit B

> <Target Source Organism According to Curator or DataSource>
Staphylococcus aureus

> <Ki (nM)>


> <IC50 (nM)>
<10.0

> <Kd (nM)>


> <EC50 (nM)>


> <kon (M-1-s-1)>


> <koff (s-1)>


> <pH>


> <Temp C>


> <Curation/DataSource>
ChEMBL

> <Article DOI>
10.1021/jm500462x

> <PMID>
24959892

> <PubChem AID>


> <Patent Number>


> <Authors>
Basarab, GS; Hill, PJ; Garner, CE; Hull, K; Green, O; Sherer, BA; Dangel, PB; Manchester, JI; Bist, S; Hauck, S; Zhou, F; Uria-Nickelsen, M; Illingworth, R; Alm, R; Rooney, M; Eakin, AE

> <Institution>
AstraZeneca

> <Link to Ligand in BindingDB>
http://www.bindingdb.org/bind/chemsearch/marvin/MolStructure.jsp?monomerid=50047328

> <Link to Ligand-Target Pair in BindingDB>
http://www.bindingdb.org/jsp/dbsearch/PrimarySearch_ki.jsp?energyterm=kJ/mole&tag=pol&polymerid=2626&target=DNA+Gyrase+Subunit+B&column=ki&startPg=0&Increment=50&submit=Search

> <Link to Ligand-Target Pair in BindingDB>
http://www.bindingdb.org/jsp/dbsearch/PrimarySearch_ki.jsp?energyterm=kJ/mole&tag=r21&monomerid=50047328&enzyme=DNA+Gyrase+Subunit+B&column=ki&startPg=0&Increment=50&submit=Search

> <Ligand HET ID in PDB>


> <PDB ID(s) for Ligand-Target Complex>


> <PubChem CID>
89699171

> <PubChem SID>
103978008

> <ChEBI ID of Ligand>


> <ChEMBL ID of Ligand>
CHEMBL32989

> <DrugBank ID of Ligand>


> <IUPHAR_GRAC ID of Ligand>


> <KEGG ID of Ligand>


> <ZINC ID of Ligand>
ZINC03922444

> <Number of Protein Chains in Target (>1 implies a multichain complex)>
1

> <BindingDB Target Chain Sequence>
MVTALSDVNNTDNYGAGQIQVLEGLEAVRKRPGMYIGSTSERGLHHLVWEIVDNSIDEALAGYANQIEVVIEKDNWIKVTDNGRGIPVDIQEKMGRPAVEVILTVLHAGGKFGGGGYKVSGGLHGVGSSVVNALSQDLEVYVHRNETIYHQAYKKGVPQFDLKEVGTTDKTGTVIRFKADGEIFTETTVYNYETLQQRIRELAFLNKGIQITLRDERDEENVREDSYHYEGGIKSYVELLNENKEPIHDEPIYIHQSKDDIEVEIAIQYNSGYATNLLTYANNIHTYEGGTHEDGFKRALTRVLNSYGLSSKIMKEEKDRLSGEDTREGMTAIISIKHGDPQFEGQTKTKLGNSEVRQVVDKLFSEHFERFLYENPQVARTVVEKGIMAARARVAAKKAREVTRRKSALDVASLPGKLADCSSKSPEECEIFLVEGDSAGGSTKSGRDSRTQAILPLRGKILNVEKARLDRILNNNEIRQMITAFGTGIGGDFDLAKARYHKIVIMTDADVDGAHIRTLLLTFFYRFMRPLIEAGYVYIAQPPLYKLTQGKQKYYVYNDRELDKLKSELNPTPKWSIARYKGLGEMNADQLWETTMNPEHRALLQVKLEDAIEADQTFEMLMGDVVENRRQFIEDNAVYANLDF

> <PDB ID(s) of Target Chain>


> <UniProt (SwissProt) Recommended Name of Target Chain>
DNA gyrase subunit B

> <UniProt (SwissProt) Entry Name of Target Chain>
GYRB_STAAU

> <UniProt (SwissProt) Primary ID of Target Chain>
P0A0K8

> <UniProt (SwissProt) Secondary ID(s) of Target Chain>
P20832

> <UniProt (SwissProt) Alternative ID(s) of Target Chain>


> <UniProt (TrEMBL) Submitted Name of Target Chain>


> <UniProt (TrEMBL) Entry Name of Target Chain>


> <UniProt (TrEMBL) Primary ID of Target Chain>


> <UniProt (TrEMBL) Secondary ID(s) of Target Chain>


> <UniProt (TrEMBL) Alternative ID(s) of Target Chain>


$$$$

  SciTegic02271514412D

 27 29  0  0  0  0            999 V2000
    8.0882   -2.9280    0.0000 C   0  0
    7.2640   -2.9655    0.0000 C   0  0
    6.8884   -3.6953    0.0000 C   0  0  2  0  0  0
    7.3287   -4.3881    0.0000 C   0  0  2  0  0  0
    8.1528   -4.3506    0.0000 C   0  0
    8.5367   -3.6205    0.0000 N   0  0
    6.0643   -3.7328    0.0000 N   0  0
    5.6198   -3.0377    0.0000 C   0  0
    4.7956   -3.0751    0.0000 C   0  0
    5.9995   -2.3052    0.0000 O   0  0
    9.3609   -3.5831    0.0000 C   0  0
    4.2842   -2.4273    0.0000 C   0  0
    3.5120   -2.7177    0.0000 C   0  0
    3.5494   -3.5419    0.0000 C   0  0
    4.3448   -3.7608    0.0000 N   0  0
    9.8736   -4.2259    0.0000 N   0  0
   10.6459   -3.9356    0.0000 C   0  0
   10.6084   -3.1114    0.0000 C   0  0
    9.8131   -2.8924    0.0000 S   0  0
   11.2531   -2.5966    0.0000 C   0  0
   12.0213   -2.8977    0.0000 O   0  0
   11.1298   -1.7810    0.0000 O   0  0
    2.9046   -4.0565    0.0000 C   0  0
    4.5055   -1.6326    0.0000 Cl  0  0
    2.8233   -2.2635    0.0000 Cl  0  0
    6.9478   -5.1200    0.0000 S   0  0
    7.3956   -5.8223    0.0000 C   0  0
  1  2  1  0
  1  6  1  0
  2  3  1  0
  3  4  1  0
  4  5  1  0
  5  6  1  0
  3  7  1  6
  7  8  1  0
  8  9  1  0
  8 10  2  0
  6 11  1  0
  9 12  2  0
 12 13  1  0
 13 14  2  0
 14 15  1  0
 15  9  1  0
 11 16  2  0
 16 17  1  0
 17 18  2  0
 18 19  1  0
 19 11  1  0
 18 20  1  0
 20 21  1  0
 20 22  2  0
 14 23  1  0
 12 24  1  0
 13 25  1  0
  4 26  1  6
 26 27  1  0
M  END
> <From> 
www.bindingDB.org

> <BindingDB Reactant_set_id>
50271395

> <Ligand InChI>
InChI=1S/C16H18Cl2N4O3S2/c1-7-11(17)12(18)13(20-7)14(23)21-8-3-4-22(6-10(8)26-2)16-19-5-9(27-16)15(24)25/h5,8,10,20H,3-4,6H2,1-2H3,(H,21,23)(H,24,25)/t8-,10+/m1/s1

> <Ligand InChI Key>
IRHUDLHZZPCPEY-SCZZXKLOSA-N

> <BindingDB MonomerID>
50047329

> <BindingDB Ligand Name>
CHEMBL3314538

> <Target Name Assigned by Curator or DataSource>
DNA Gyrase Subunit B

> <Target Source Organism According to Curator or DataSource>
Staphylococcus aureus

> <Ki (nM)>


> <IC50 (nM)>
<10.0

> <Kd (nM)>


> <EC50 (nM)>


> <kon (M-1-s-1)>


> <koff (s-1)>


> <pH>


> <Temp C>


> <Curation/DataSource>
ChEMBL

> <Article DOI>
10.1021/jm500462x

> <PMID>
24959892

> <PubChem AID>


> <Patent Number>


> <Authors>
Basarab, GS; Hill, PJ; Garner, CE; Hull, K; Green, O; Sherer, BA; Dangel, PB; Manchester, JI; Bist, S; Hauck, S; Zhou, F; Uria-Nickelsen, M; Illingworth, R; Alm, R; Rooney, M; Eakin, AE

> <Institution>
AstraZeneca

> <Link to Ligand in BindingDB>
http://www.bindingdb.org/bind/chemsearch/marvin/MolStructure.jsp?monomerid=50047329

> <Link to Ligand-Target Pair in BindingDB>
http://www.bindingdb.org/jsp/dbsearch/PrimarySearch_ki.jsp?energyterm=kJ/mole&tag=pol&polymerid=2626&target=DNA+Gyrase+Subunit+B&column=ki&startPg=0&Increment=50&submit=Search

> <Link to Ligand-Target Pair in BindingDB>
http://www.bindingdb.org/jsp/dbsearch/PrimarySearch_ki.jsp?energyterm=kJ/mole&tag=r21&monomerid=50047329&enzyme=DNA+Gyrase+Subunit+B&column=ki&startPg=0&Increment=50&submit=Search

> <Ligand HET ID in PDB>


> <PDB ID(s) for Ligand-Target Complex>


> <PubChem CID>
89699369

> <PubChem SID>
103978009

> <ChEBI ID of Ligand>


> <ChEMBL ID of Ligand>
CHEMBL30440

> <DrugBank ID of Ligand>


> <IUPHAR_GRAC ID of Ligand>


> <KEGG ID of Ligand>


> <ZINC ID of Ligand>
ZINC13827195

> <Number of Protein Chains in Target (>1 implies a multichain complex)>
1

> <BindingDB Target Chain Sequence>
MVTALSDVNNTDNYGAGQIQVLEGLEAVRKRPGMYIGSTSERGLHHLVWEIVDNSIDEALAGYANQIEVVIEKDNWIKVTDNGRGIPVDIQEKMGRPAVEVILTVLHAGGKFGGGGYKVSGGLHGVGSSVVNALSQDLEVYVHRNETIYHQAYKKGVPQFDLKEVGTTDKTGTVIRFKADGEIFTETTVYNYETLQQRIRELAFLNKGIQITLRDERDEENVREDSYHYEGGIKSYVELLNENKEPIHDEPIYIHQSKDDIEVEIAIQYNSGYATNLLTYANNIHTYEGGTHEDGFKRALTRVLNSYGLSSKIMKEEKDRLSGEDTREGMTAIISIKHGDPQFEGQTKTKLGNSEVRQVVDKLFSEHFERFLYENPQVARTVVEKGIMAARARVAAKKAREVTRRKSALDVASLPGKLADCSSKSPEECEIFLVEGDSAGGSTKSGRDSRTQAILPLRGKILNVEKARLDRILNNNEIRQMITAFGTGIGGDFDLAKARYHKIVIMTDADVDGAHIRTLLLTFFYRFMRPLIEAGYVYIAQPPLYKLTQGKQKYYVYNDRELDKLKSELNPTPKWSIARYKGLGEMNADQLWETTMNPEHRALLQVKLEDAIEADQTFEMLMGDVVENRRQFIEDNAVYANLDF

> <PDB ID(s) of Target Chain>


> <UniProt (SwissProt) Recommended Name of Target Chain>
DNA gyrase subunit B

> <UniProt (SwissProt) Entry Name of Target Chain>
GYRB_STAAU

> <UniProt (SwissProt) Primary ID of Target Chain>
P0A0K8

> <UniProt (SwissProt) Secondary ID(s) of Target Chain>
P20832

> <UniProt (SwissProt) Alternative ID(s) of Target Chain>


> <UniProt (TrEMBL) Submitted Name of Target Chain>


> <UniProt (TrEMBL) Entry Name of Target Chain>


> <UniProt (TrEMBL) Primary ID of Target Chain>


> <UniProt (TrEMBL) Secondary ID(s) of Target Chain>


> <UniProt (TrEMBL) Alternative ID(s) of Target Chain>


$$$$

  SciTegic02271514412D

 29 31  0  0  0  0            999 V2000
    8.0881   -2.9280    0.0000 C   0  0
    7.2640   -2.9655    0.0000 C   0  0
    6.8883   -3.6953    0.0000 C   0  0  2  0  0  0
    7.3286   -4.3881    0.0000 C   0  0  2  0  0  0
    8.1527   -4.3506    0.0000 C   0  0
    8.5367   -3.6205    0.0000 N   0  0
    6.0642   -3.7328    0.0000 N   0  0
    5.6197   -3.0377    0.0000 C   0  0
    4.7956   -3.0751    0.0000 C   0  0
    5.9994   -2.3052    0.0000 O   0  0
    9.3609   -3.5830    0.0000 C   0  0
    4.2842   -2.4273    0.0000 C   0  0
    3.5120   -2.7176    0.0000 C   0  0
    3.5494   -3.5418    0.0000 C   0  0
    4.3447   -3.7608    0.0000 N   0  0
    9.8735   -4.2259    0.0000 N   0  0
   10.6458   -3.9356    0.0000 C   0  0
   10.6084   -3.1114    0.0000 C   0  0
    9.8130   -2.8924    0.0000 S   0  0
   11.2531   -2.5966    0.0000 C   0  0
   12.0213   -2.8976    0.0000 O   0  0
   11.1297   -1.7810    0.0000 O   0  0
    2.9046   -4.0565    0.0000 C   0  0
    4.5055   -1.6326    0.0000 Cl  0  0
    2.8232   -2.2634    0.0000 Cl  0  0
    6.9478   -5.1200    0.0000 S   0  0
    7.3955   -5.8222    0.0000 C   0  0
    6.2266   -5.5364    0.0000 O   0  0
    6.2266   -4.7035    0.0000 O   0  0
  1  2  1  0
  1  6  1  0
  2  3  1  0
  3  4  1  0
  4  5  1  0
  5  6  1  0
  3  7  1  6
  7  8  1  0
  8  9  1  0
  8 10  2  0
  6 11  1  0
  9 12  2  0
 12 13  1  0
 13 14  2  0
 14 15  1  0
 15  9  1  0
 11 16  2  0
 16 17  1  0
 17 18  2  0
 18 19  1  0
 19 11  1  0
 18 20  1  0
 20 21  1  0
 20 22  2  0
 14 23  1  0
 12 24  1  0
 13 25  1  0
  4 26  1  6
 26 27  1  0
 26 28  2  0
 26 29  2  0
M  END
> <From> 
www.bindingDB.org

> <BindingDB Reactant_set_id>
50271396

> <Ligand InChI>
InChI=1S/C16H18Cl2N4O5S2/c1-7-11(17)12(18)13(20-7)14(23)21-8-3-4-22(6-10(8)29(2,26)27)16-19-5-9(28-16)15(24)25/h5,8,10,20H,3-4,6H2,1-2H3,(H,21,23)(H,24,25)/t8-,10+/m1/s1

> <Ligand InChI Key>
IHSUAWFTTKSVJA-SCZZXKLOSA-N

> <BindingDB MonomerID>
50047330

> <BindingDB Ligand Name>
CHEMBL3314539

> <Target Name Assigned by Curator or DataSource>
DNA Gyrase Subunit B

> <Target Source Organism According to Curator or DataSource>
Staphylococcus aureus

> <Ki (nM)>


> <IC50 (nM)>
<10.0

> <Kd (nM)>


> <EC50 (nM)>


> <kon (M-1-s-1)>


> <koff (s-1)>


> <pH>


> <Temp C>


> <Curation/DataSource>
ChEMBL

> <Article DOI>
10.1021/jm500462x

> <PMID>
24959892

> <PubChem AID>


> <Patent Number>


> <Authors>
Basarab, GS; Hill, PJ; Garner, CE; Hull, K; Green, O; Sherer, BA; Dangel, PB; Manchester, JI; Bist, S; Hauck, S; Zhou, F; Uria-Nickelsen, M; Illingworth, R; Alm, R; Rooney, M; Eakin, AE

> <Institution>
AstraZeneca

> <Link to Ligand in BindingDB>
http://www.bindingdb.org/bind/chemsearch/marvin/MolStructure.jsp?monomerid=50047330

> <Link to Ligand-Target Pair in BindingDB>
http://www.bindingdb.org/jsp/dbsearch/PrimarySearch_ki.jsp?energyterm=kJ/mole&tag=pol&polymerid=2626&target=DNA+Gyrase+Subunit+B&column=ki&startPg=0&Increment=50&submit=Search

> <Link to Ligand-Target Pair in BindingDB>
http://www.bindingdb.org/jsp/dbsearch/PrimarySearch_ki.jsp?energyterm=kJ/mole&tag=r21&monomerid=50047330&enzyme=DNA+Gyrase+Subunit+B&column=ki&startPg=0&Increment=50&submit=Search

> <Ligand HET ID in PDB>


> <PDB ID(s) for Ligand-Target Complex>


> <PubChem CID>
89699216

> <PubChem SID>
103978010

> <ChEBI ID of Ligand>


> <ChEMBL ID of Ligand>
CHEMBL418045

> <DrugBank ID of Ligand>


> <IUPHAR_GRAC ID of Ligand>


> <KEGG ID of Ligand>


> <ZINC ID of Ligand>
ZINC13827199

> <Number of Protein Chains in Target (>1 implies a multichain complex)>
1

> <BindingDB Target Chain Sequence>
MVTALSDVNNTDNYGAGQIQVLEGLEAVRKRPGMYIGSTSERGLHHLVWEIVDNSIDEALAGYANQIEVVIEKDNWIKVTDNGRGIPVDIQEKMGRPAVEVILTVLHAGGKFGGGGYKVSGGLHGVGSSVVNALSQDLEVYVHRNETIYHQAYKKGVPQFDLKEVGTTDKTGTVIRFKADGEIFTETTVYNYETLQQRIRELAFLNKGIQITLRDERDEENVREDSYHYEGGIKSYVELLNENKEPIHDEPIYIHQSKDDIEVEIAIQYNSGYATNLLTYANNIHTYEGGTHEDGFKRALTRVLNSYGLSSKIMKEEKDRLSGEDTREGMTAIISIKHGDPQFEGQTKTKLGNSEVRQVVDKLFSEHFERFLYENPQVARTVVEKGIMAARARVAAKKAREVTRRKSALDVASLPGKLADCSSKSPEECEIFLVEGDSAGGSTKSGRDSRTQAILPLRGKILNVEKARLDRILNNNEIRQMITAFGTGIGGDFDLAKARYHKIVIMTDADVDGAHIRTLLLTFFYRFMRPLIEAGYVYIAQPPLYKLTQGKQKYYVYNDRELDKLKSELNPTPKWSIARYKGLGEMNADQLWETTMNPEHRALLQVKLEDAIEADQTFEMLMGDVVENRRQFIEDNAVYANLDF

> <PDB ID(s) of Target Chain>


> <UniProt (SwissProt) Recommended Name of Target Chain>
DNA gyrase subunit B

> <UniProt (SwissProt) Entry Name of Target Chain>
GYRB_STAAU

> <UniProt (SwissProt) Primary ID of Target Chain>
P0A0K8

> <UniProt (SwissProt) Secondary ID(s) of Target Chain>
P20832

> <UniProt (SwissProt) Alternative ID(s) of Target Chain>


> <UniProt (TrEMBL) Submitted Name of Target Chain>


> <UniProt (TrEMBL) Entry Name of Target Chain>


> <UniProt (TrEMBL) Primary ID of Target Chain>


> <UniProt (TrEMBL) Secondary ID(s) of Target Chain>


> <UniProt (TrEMBL) Alternative ID(s) of Target Chain>


$$$$

  SciTegic02271514412D

 28 30  0  0  0  0            999 V2000
   11.9378  -12.1767    0.0000 O   0  0
    6.4280  -13.4335    0.0000 C   0  0
    3.6315  -12.6592    0.0000 Cl  0  0
    7.1672  -16.1047    0.0000 N   0  3
   11.4166  -13.5072    0.0000 C   0  0
    5.0925  -12.8231    0.0000 C   0  0
    8.0723  -13.3612    0.0000 C   0  0
    6.5782  -16.6935    0.0000 N   0  5
    6.8725  -14.1285    0.0000 N   0  0
   12.8295  -13.2934    0.0000 O   0  0
   10.6212  -13.2882    0.0000 S   0  0
   12.0613  -12.9924    0.0000 C   0  0
   10.6818  -14.6216    0.0000 N   0  0
    6.8077  -12.7010    0.0000 O   0  0
    7.7561  -15.5157    0.0000 N   0  0
    9.3449  -14.0162    0.0000 N   0  0
    4.3203  -13.1134    0.0000 C   0  0
    5.6038  -13.4708    0.0000 C   0  0
    3.7129  -14.4523    0.0000 C   0  0
    4.3576  -13.9376    0.0000 C   0  0
   11.4541  -14.3314    0.0000 C   0  0
    7.6966  -14.0910    0.0000 C   0  0  1  0  0  0
    5.3138  -12.0283    0.0000 Cl  0  0
    5.1530  -14.1565    0.0000 N   0  0
   10.1691  -13.9787    0.0000 C   0  0
    8.8964  -13.3238    0.0000 C   0  0
    8.9610  -14.7464    0.0000 C   0  0
    8.1369  -14.7838    0.0000 C   0  0  2  0  0  0
  7 22  1  0
 18  6  2  0
 24 18  1  0
  5 12  1  0
 28 15  1  6
 26  7  1  0
  6 23  1  0
 28 27  1  0
 27 16  1  0
 20 24  1  0
 17  3  1  0
 25 13  2  0
  5 11  1  0
 16 25  1  0
  4  8  2  0
  2 18  1  0
 15  4  2  0
 26 16  1  0
  6 17  1  0
 22  9  1  6
 17 20  2  0
 20 19  1  0
 21  5  2  0
 22 28  1  0
 12  1  2  0
 11 25  1  0
 13 21  1  0
 12 10  1  0
  9  2  1  0
  2 14  2  0
M  CHG  2   4   1   8  -1
M  END
> <From> 
www.bindingDB.org

> <BindingDB Reactant_set_id>
50271397

> <Ligand InChI>
InChI=1S/C15H15Cl2N7O3S/c1-6-10(16)11(17)12(20-6)13(25)21-7-2-3-24(5-8(7)22-23-18)15-19-4-9(28-15)14(26)27/h4,7-8,20H,2-3,5H2,1H3,(H,21,25)(H,26,27)/t7-,8+/m1/s1

> <Ligand InChI Key>
IYRCFLANINTNKW-SFYZADRCSA-N

> <BindingDB MonomerID>
50047331

> <BindingDB Ligand Name>
CHEMBL3314540

> <Target Name Assigned by Curator or DataSource>
DNA Gyrase Subunit B

> <Target Source Organism According to Curator or DataSource>
Staphylococcus aureus

> <Ki (nM)>


> <IC50 (nM)>
<10.0

> <Kd (nM)>


> <EC50 (nM)>


> <kon (M-1-s-1)>


> <koff (s-1)>


> <pH>


> <Temp C>


> <Curation/DataSource>
ChEMBL

> <Article DOI>
10.1021/jm500462x

> <PMID>
24959892

> <PubChem AID>


> <Patent Number>


> <Authors>
Basarab, GS; Hill, PJ; Garner, CE; Hull, K; Green, O; Sherer, BA; Dangel, PB; Manchester, JI; Bist, S; Hauck, S; Zhou, F; Uria-Nickelsen, M; Illingworth, R; Alm, R; Rooney, M; Eakin, AE

> <Institution>
AstraZeneca

> <Link to Ligand in BindingDB>
http://www.bindingdb.org/bind/chemsearch/marvin/MolStructure.jsp?monomerid=50047331

> <Link to Ligand-Target Pair in BindingDB>
http://www.bindingdb.org/jsp/dbsearch/PrimarySearch_ki.jsp?energyterm=kJ/mole&tag=pol&polymerid=2626&target=DNA+Gyrase+Subunit+B&column=ki&startPg=0&Increment=50&submit=Search

> <Link to Ligand-Target Pair in BindingDB>
http://www.bindingdb.org/jsp/dbsearch/PrimarySearch_ki.jsp?energyterm=kJ/mole&tag=r21&monomerid=50047331&enzyme=DNA+Gyrase+Subunit+B&column=ki&startPg=0&Increment=50&submit=Search

> <Ligand HET ID in PDB>


> <PDB ID(s) for Ligand-Target Complex>


> <PubChem CID>
89699240

> <PubChem SID>
103978011

> <ChEBI ID of Ligand>


> <ChEMBL ID of Ligand>
CHEMBL33735

> <DrugBank ID of Ligand>


> <IUPHAR_GRAC ID of Ligand>


> <KEGG ID of Ligand>


> <ZINC ID of Ligand>
ZINC03787702

> <Number of Protein Chains in Target (>1 implies a multichain complex)>
1

> <BindingDB Target Chain Sequence>
MVTALSDVNNTDNYGAGQIQVLEGLEAVRKRPGMYIGSTSERGLHHLVWEIVDNSIDEALAGYANQIEVVIEKDNWIKVTDNGRGIPVDIQEKMGRPAVEVILTVLHAGGKFGGGGYKVSGGLHGVGSSVVNALSQDLEVYVHRNETIYHQAYKKGVPQFDLKEVGTTDKTGTVIRFKADGEIFTETTVYNYETLQQRIRELAFLNKGIQITLRDERDEENVREDSYHYEGGIKSYVELLNENKEPIHDEPIYIHQSKDDIEVEIAIQYNSGYATNLLTYANNIHTYEGGTHEDGFKRALTRVLNSYGLSSKIMKEEKDRLSGEDTREGMTAIISIKHGDPQFEGQTKTKLGNSEVRQVVDKLFSEHFERFLYENPQVARTVVEKGIMAARARVAAKKAREVTRRKSALDVASLPGKLADCSSKSPEECEIFLVEGDSAGGSTKSGRDSRTQAILPLRGKILNVEKARLDRILNNNEIRQMITAFGTGIGGDFDLAKARYHKIVIMTDADVDGAHIRTLLLTFFYRFMRPLIEAGYVYIAQPPLYKLTQGKQKYYVYNDRELDKLKSELNPTPKWSIARYKGLGEMNADQLWETTMNPEHRALLQVKLEDAIEADQTFEMLMGDVVENRRQFIEDNAVYANLDF

> <PDB ID(s) of Target Chain>


> <UniProt (SwissProt) Recommended Name of Target Chain>
DNA gyrase subunit B

> <UniProt (SwissProt) Entry Name of Target Chain>
GYRB_STAAU

> <UniProt (SwissProt) Primary ID of Target Chain>
P0A0K8

> <UniProt (SwissProt) Secondary ID(s) of Target Chain>
P20832

> <UniProt (SwissProt) Alternative ID(s) of Target Chain>


> <UniProt (TrEMBL) Submitted Name of Target Chain>


> <UniProt (TrEMBL) Entry Name of Target Chain>


> <UniProt (TrEMBL) Primary ID of Target Chain>


> <UniProt (TrEMBL) Secondary ID(s) of Target Chain>


> <UniProt (TrEMBL) Alternative ID(s) of Target Chain>


$$$$

  Mrv0541 03271611212D          

 30 33  0  0  0  0            999 V2000
   11.0861  -10.3713    0.0000 C   0  0  1  0  0  0  0  0  0  0  0  0
   10.2609  -10.4056    0.0000 O   0  0  0  0  0  0  0  0  0  0  0  0
    9.8802  -11.1333    0.0000 C   0  0  0  0  0  0  0  0  0  0  0  0
   10.3203  -11.8315    0.0000 C   0  0  0  0  0  0  0  0  0  0  0  0
   11.1455  -11.7972    0.0000 C   0  0  0  0  0  0  0  0  0  0  0  0
   11.5306  -11.0647    0.0000 O   0  0  0  0  0  0  0  0  0  0  0  0
   11.8458   -8.9108    0.0000 C   0  0  0  0  0  0  0  0  0  0  0  0
   11.0217   -8.9483    0.0000 C   0  0  0  0  0  0  0  0  0  0  0  0
   10.6461   -9.6781    0.0000 C   0  0  1  0  0  0  0  0  0  0  0  0
   11.9104  -10.3333    0.0000 C   0  0  0  0  0  0  0  0  0  0  0  0
   12.2943   -9.6033    0.0000 N   0  0  0  0  0  0  0  0  0  0  0  0
    9.8219   -9.7155    0.0000 N   0  0  0  0  0  0  0  0  0  0  0  0
    9.3775   -9.0205    0.0000 C   0  0  0  0  0  0  0  0  0  0  0  0
    8.5534   -9.0579    0.0000 C   0  0  0  0  0  0  0  0  0  0  0  0
    9.7571   -8.2881    0.0000 O   0  0  0  0  0  0  0  0  0  0  0  0
   13.1183   -9.5658    0.0000 C   0  0  0  0  0  0  0  0  0  0  0  0
    8.0421   -8.4101    0.0000 C   0  0  0  0  0  0  0  0  0  0  0  0
    7.2698   -8.7005    0.0000 C   0  0  0  0  0  0  0  0  0  0  0  0
    7.3073   -9.5246    0.0000 C   0  0  0  0  0  0  0  0  0  0  0  0
    8.1026   -9.7436    0.0000 N   0  0  0  0  0  0  0  0  0  0  0  0
   13.6310  -10.2086    0.0000 N   0  0  0  0  0  0  0  0  0  0  0  0
   14.4032   -9.9183    0.0000 C   0  0  0  0  0  0  0  0  0  0  0  0
   14.3659   -9.0942    0.0000 C   0  0  0  0  0  0  0  0  0  0  0  0
   13.5705   -8.8752    0.0000 S   0  0  0  0  0  0  0  0  0  0  0  0
   15.0105   -8.5794    0.0000 C   0  0  0  0  0  0  0  0  0  0  0  0
   15.7787   -8.8805    0.0000 O   0  0  0  0  0  0  0  0  0  0  0  0
   14.8871   -7.7638    0.0000 O   0  0  0  0  0  0  0  0  0  0  0  0
    6.6626  -10.0393    0.0000 C   0  0  0  0  0  0  0  0  0  0  0  0
    8.2633   -7.6154    0.0000 Cl  0  0  0  0  0  0  0  0  0  0  0  0
    6.5811   -8.2463    0.0000 Cl  0  0  0  0  0  0  0  0  0  0  0  0
  1  2  1  1  0  0  0
  1  6  1  0  0  0  0
  2  3  1  0  0  0  0
  3  4  1  0  0  0  0
  4  5  1  0  0  0  0
  5  6  1  0  0  0  0
  7  8  1  0  0  0  0
  7 11  1  0  0  0  0
  9  8  1  0  0  0  0
  1  9  1  0  0  0  0
  1 10  1  0  0  0  0
 10 11  1  0  0  0  0
  9 12  1  6  0  0  0
 12 13  1  0  0  0  0
 13 14  1  0  0  0  0
 13 15  2  0  0  0  0
 11 16  1  0  0  0  0
 14 17  4  0  0  0  0
 17 18  4  0  0  0  0
 18 19  4  0  0  0  0
 19 20  4  0  0  0  0
 20 14  4  0  0  0  0
 16 21  4  0  0  0  0
 21 22  4  0  0  0  0
 22 23  4  0  0  0  0
 23 24  4  0  0  0  0
 24 16  4  0  0  0  0
 23 25  1  0  0  0  0
 25 26  1  0  0  0  0
 25 27  2  0  0  0  0
 19 28  1  0  0  0  0
 17 29  1  0  0  0  0
 18 30  1  0  0  0  0
M  STY  1   1 DAT
M  SAL   1  1  20
M  SDT   1 MRV_IMPLICIT_H                                        
M  SDD   1     0.0000    0.0000    DR    ALL  0       0  
M  SED   1 IMPL_H1
M  END
> <From> 
www.bindingDB.org

> <BindingDB Reactant_set_id>
50271400

> <Ligand InChI>
InChI=1S/C18H20Cl2N4O5S/c1-9-12(19)13(20)14(22-9)15(25)23-11-3-4-24(8-18(11)28-5-2-6-29-18)17-21-7-10(30-17)16(26)27/h7,11,22H,2-6,8H2,1H3,(H,23,25)(H,26,27)/t11-/m1/s1

> <Ligand InChI Key>
PDIXUMQRCANKHU-LLVKDONJSA-N

> <BindingDB MonomerID>
50047334

> <BindingDB Ligand Name>
CHEMBL3314543

> <Target Name Assigned by Curator or DataSource>
DNA Gyrase Subunit B

> <Target Source Organism According to Curator or DataSource>
Staphylococcus aureus

> <Ki (nM)>


> <IC50 (nM)>
<10.0

> <Kd (nM)>


> <EC50 (nM)>


> <kon (M-1-s-1)>


> <koff (s-1)>


> <pH>


> <Temp C>


> <Curation/DataSource>
ChEMBL

> <Article DOI>
10.1021/jm500462x

> <PMID>
24959892

> <PubChem AID>


> <Patent Number>


> <Authors>
Basarab, GS; Hill, PJ; Garner, CE; Hull, K; Green, O; Sherer, BA; Dangel, PB; Manchester, JI; Bist, S; Hauck, S; Zhou, F; Uria-Nickelsen, M; Illingworth, R; Alm, R; Rooney, M; Eakin, AE

> <Institution>
AstraZeneca

> <Link to Ligand in BindingDB>
http://www.bindingdb.org/bind/chemsearch/marvin/MolStructure.jsp?monomerid=50047334

> <Link to Ligand-Target Pair in BindingDB>
http://www.bindingdb.org/jsp/dbsearch/PrimarySearch_ki.jsp?energyterm=kJ/mole&tag=pol&polymerid=2626&target=DNA+Gyrase+Subunit+B&column=ki&startPg=0&Increment=50&submit=Search

> <Link to Ligand-Target Pair in BindingDB>
http://www.bindingdb.org/jsp/dbsearch/PrimarySearch_ki.jsp?energyterm=kJ/mole&tag=r21&monomerid=50047334&enzyme=DNA+Gyrase+Subunit+B&column=ki&startPg=0&Increment=50&submit=Search

> <Ligand HET ID in PDB>


> <PDB ID(s) for Ligand-Target Complex>


> <PubChem CID>
118707649

> <PubChem SID>
313068765

> <ChEBI ID of Ligand>


> <ChEMBL ID of Ligand>


> <DrugBank ID of Ligand>


> <IUPHAR_GRAC ID of Ligand>


> <KEGG ID of Ligand>


> <ZINC ID of Ligand>


> <Number of Protein Chains in Target (>1 implies a multichain complex)>
1

> <BindingDB Target Chain Sequence>
MVTALSDVNNTDNYGAGQIQVLEGLEAVRKRPGMYIGSTSERGLHHLVWEIVDNSIDEALAGYANQIEVVIEKDNWIKVTDNGRGIPVDIQEKMGRPAVEVILTVLHAGGKFGGGGYKVSGGLHGVGSSVVNALSQDLEVYVHRNETIYHQAYKKGVPQFDLKEVGTTDKTGTVIRFKADGEIFTETTVYNYETLQQRIRELAFLNKGIQITLRDERDEENVREDSYHYEGGIKSYVELLNENKEPIHDEPIYIHQSKDDIEVEIAIQYNSGYATNLLTYANNIHTYEGGTHEDGFKRALTRVLNSYGLSSKIMKEEKDRLSGEDTREGMTAIISIKHGDPQFEGQTKTKLGNSEVRQVVDKLFSEHFERFLYENPQVARTVVEKGIMAARARVAAKKAREVTRRKSALDVASLPGKLADCSSKSPEECEIFLVEGDSAGGSTKSGRDSRTQAILPLRGKILNVEKARLDRILNNNEIRQMITAFGTGIGGDFDLAKARYHKIVIMTDADVDGAHIRTLLLTFFYRFMRPLIEAGYVYIAQPPLYKLTQGKQKYYVYNDRELDKLKSELNPTPKWSIARYKGLGEMNADQLWETTMNPEHRALLQVKLEDAIEADQTFEMLMGDVVENRRQFIEDNAVYANLDF

> <PDB ID(s) of Target Chain>


> <UniProt (SwissProt) Recommended Name of Target Chain>
DNA gyrase subunit B

> <UniProt (SwissProt) Entry Name of Target Chain>
GYRB_STAAU

> <UniProt (SwissProt) Primary ID of Target Chain>
P0A0K8

> <UniProt (SwissProt) Secondary ID(s) of Target Chain>
P20832

> <UniProt (SwissProt) Alternative ID(s) of Target Chain>


> <UniProt (TrEMBL) Submitted Name of Target Chain>


> <UniProt (TrEMBL) Entry Name of Target Chain>


> <UniProt (TrEMBL) Primary ID of Target Chain>


> <UniProt (TrEMBL) Secondary ID(s) of Target Chain>


> <UniProt (TrEMBL) Alternative ID(s) of Target Chain>


$$$$

  SciTegic05221516342D

 32 35  0  0  0  0            999 V2000
   11.0861  -10.3713    0.0000 C   0  0
   10.2609  -10.4056    0.0000 O   0  0
    9.8802  -11.1333    0.0000 C   0  0
   10.3203  -11.8315    0.0000 C   0  0
   11.1455  -11.7972    0.0000 C   0  0
   11.5306  -11.0647    0.0000 O   0  0
   11.8458   -8.9108    0.0000 C   0  0
   11.0217   -8.9483    0.0000 C   0  0
   10.6461   -9.6781    0.0000 C   0  0  1  0  0  0
   11.9104  -10.3333    0.0000 C   0  0
   12.2943   -9.6033    0.0000 N   0  0
    9.8219   -9.7155    0.0000 N   0  0
    9.3775   -9.0205    0.0000 C   0  0
    8.5534   -9.0579    0.0000 C   0  0
    9.7571   -8.2881    0.0000 O   0  0
   13.1183   -9.5658    0.0000 C   0  0
    8.0421   -8.4101    0.0000 C   0  0
    7.2698   -8.7005    0.0000 C   0  0
    7.3073   -9.5246    0.0000 C   0  0
    8.1026   -9.7436    0.0000 N   0  0
   13.6310  -10.2086    0.0000 N   0  0
   14.4032   -9.9183    0.0000 C   0  0
   14.3659   -9.0942    0.0000 C   0  0
   13.5705   -8.8752    0.0000 S   0  0
   15.0105   -8.5794    0.0000 C   0  0
   15.7787   -8.8805    0.0000 O   0  0
   14.8871   -7.7638    0.0000 O   0  0
    6.6626  -10.0393    0.0000 C   0  0
    8.2633   -7.6154    0.0000 Cl  0  0
    6.5811   -8.2463    0.0000 Cl  0  0
    9.9369  -12.5620    0.0000 O   0  0
    9.1125  -12.5951    0.0000 C   0  0
  1  2  1  0
  1  6  1  0
  2  3  1  0
  3  4  1  0
  4  5  1  0
  5  6  1  0
  7  8  1  0
  7 11  1  0
  8  9  1  0
  9  1  1  0
  1 10  1  0
 10 11  1  0
  9 12  1  6
 12 13  1  0
 13 14  1  0
 13 15  2  0
 11 16  1  0
 14 17  2  0
 17 18  1  0
 18 19  2  0
 19 20  1  0
 20 14  1  0
 16 21  2  0
 21 22  1  0
 22 23  2  0
 23 24  1  0
 24 16  1  0
 23 25  1  0
 25 26  1  0
 25 27  2  0
 19 28  1  0
 17 29  1  0
 18 30  1  0
  4 31  1  0
 31 32  1  0
M  END
> <From> 
www.bindingDB.org

> <BindingDB Reactant_set_id>
50271401

> <Ligand InChI>
InChI=1S/C19H22Cl2N4O6S/c1-9-13(20)14(21)15(23-9)16(26)24-12-3-4-25(18-22-5-11(32-18)17(27)28)8-19(12)30-6-10(29-2)7-31-19/h5,10,12,23H,3-4,6-8H2,1-2H3,(H,24,26)(H,27,28)/t10?,12-,19?/m1/s1

> <Ligand InChI Key>
RINSZEUILDCFND-LFBZESBLSA-N

> <BindingDB MonomerID>
50047335

> <BindingDB Ligand Name>
CHEMBL3353959

> <Target Name Assigned by Curator or DataSource>
DNA Gyrase Subunit B

> <Target Source Organism According to Curator or DataSource>
Staphylococcus aureus

> <Ki (nM)>


> <IC50 (nM)>
<10.0

> <Kd (nM)>


> <EC50 (nM)>


> <kon (M-1-s-1)>


> <koff (s-1)>


> <pH>


> <Temp C>


> <Curation/DataSource>
ChEMBL

> <Article DOI>
10.1021/jm500462x

> <PMID>
24959892

> <PubChem AID>


> <Patent Number>


> <Authors>
Basarab, GS; Hill, PJ; Garner, CE; Hull, K; Green, O; Sherer, BA; Dangel, PB; Manchester, JI; Bist, S; Hauck, S; Zhou, F; Uria-Nickelsen, M; Illingworth, R; Alm, R; Rooney, M; Eakin, AE

> <Institution>
AstraZeneca

> <Link to Ligand in BindingDB>
http://www.bindingdb.org/bind/chemsearch/marvin/MolStructure.jsp?monomerid=50047335

> <Link to Ligand-Target Pair in BindingDB>
http://www.bindingdb.org/jsp/dbsearch/PrimarySearch_ki.jsp?energyterm=kJ/mole&tag=pol&polymerid=2626&target=DNA+Gyrase+Subunit+B&column=ki&startPg=0&Increment=50&submit=Search

> <Link to Ligand-Target Pair in BindingDB>
http://www.bindingdb.org/jsp/dbsearch/PrimarySearch_ki.jsp?energyterm=kJ/mole&tag=r21&monomerid=50047335&enzyme=DNA+Gyrase+Subunit+B&column=ki&startPg=0&Increment=50&submit=Search

> <Ligand HET ID in PDB>


> <PDB ID(s) for Ligand-Target Complex>


> <PubChem CID>
25030708

> <PubChem SID>
103978014

> <ChEBI ID of Ligand>


> <ChEMBL ID of Ligand>
CHEMBL33560

> <DrugBank ID of Ligand>


> <IUPHAR_GRAC ID of Ligand>


> <KEGG ID of Ligand>


> <ZINC ID of Ligand>
ZINC01889733

> <Number of Protein Chains in Target (>1 implies a multichain complex)>
1

> <BindingDB Target Chain Sequence>
MVTALSDVNNTDNYGAGQIQVLEGLEAVRKRPGMYIGSTSERGLHHLVWEIVDNSIDEALAGYANQIEVVIEKDNWIKVTDNGRGIPVDIQEKMGRPAVEVILTVLHAGGKFGGGGYKVSGGLHGVGSSVVNALSQDLEVYVHRNETIYHQAYKKGVPQFDLKEVGTTDKTGTVIRFKADGEIFTETTVYNYETLQQRIRELAFLNKGIQITLRDERDEENVREDSYHYEGGIKSYVELLNENKEPIHDEPIYIHQSKDDIEVEIAIQYNSGYATNLLTYANNIHTYEGGTHEDGFKRALTRVLNSYGLSSKIMKEEKDRLSGEDTREGMTAIISIKHGDPQFEGQTKTKLGNSEVRQVVDKLFSEHFERFLYENPQVARTVVEKGIMAARARVAAKKAREVTRRKSALDVASLPGKLADCSSKSPEECEIFLVEGDSAGGSTKSGRDSRTQAILPLRGKILNVEKARLDRILNNNEIRQMITAFGTGIGGDFDLAKARYHKIVIMTDADVDGAHIRTLLLTFFYRFMRPLIEAGYVYIAQPPLYKLTQGKQKYYVYNDRELDKLKSELNPTPKWSIARYKGLGEMNADQLWETTMNPEHRALLQVKLEDAIEADQTFEMLMGDVVENRRQFIEDNAVYANLDF

> <PDB ID(s) of Target Chain>


> <UniProt (SwissProt) Recommended Name of Target Chain>
DNA gyrase subunit B

> <UniProt (SwissProt) Entry Name of Target Chain>
GYRB_STAAU

> <UniProt (SwissProt) Primary ID of Target Chain>
P0A0K8

> <UniProt (SwissProt) Secondary ID(s) of Target Chain>
P20832

> <UniProt (SwissProt) Alternative ID(s) of Target Chain>


> <UniProt (TrEMBL) Submitted Name of Target Chain>


> <UniProt (TrEMBL) Entry Name of Target Chain>


> <UniProt (TrEMBL) Primary ID of Target Chain>


> <UniProt (TrEMBL) Secondary ID(s) of Target Chain>


> <UniProt (TrEMBL) Alternative ID(s) of Target Chain>


$$$$

  Mrv0541 03271611212D          

 32 35  0  0  0  0            999 V2000
   11.0861  -10.3713    0.0000 C   0  0  1  0  0  0  0  0  0  0  0  0
   10.2609  -10.4056    0.0000 O   0  0  0  0  0  0  0  0  0  0  0  0
    9.8802  -11.1333    0.0000 C   0  0  0  0  0  0  0  0  0  0  0  0
   10.3203  -11.8315    0.0000 C   0  0  2  0  0  0  0  0  0  0  0  0
   11.1455  -11.7972    0.0000 C   0  0  0  0  0  0  0  0  0  0  0  0
   11.5306  -11.0647    0.0000 O   0  0  0  0  0  0  0  0  0  0  0  0
   11.8458   -8.9108    0.0000 C   0  0  0  0  0  0  0  0  0  0  0  0
   11.0217   -8.9483    0.0000 C   0  0  0  0  0  0  0  0  0  0  0  0
   10.6461   -9.6781    0.0000 C   0  0  1  0  0  0  0  0  0  0  0  0
   11.9104  -10.3333    0.0000 C   0  0  0  0  0  0  0  0  0  0  0  0
   12.2943   -9.6033    0.0000 N   0  0  0  0  0  0  0  0  0  0  0  0
    9.8219   -9.7155    0.0000 N   0  0  0  0  0  0  0  0  0  0  0  0
    9.3775   -9.0205    0.0000 C   0  0  0  0  0  0  0  0  0  0  0  0
    8.5534   -9.0579    0.0000 C   0  0  0  0  0  0  0  0  0  0  0  0
    9.7571   -8.2881    0.0000 O   0  0  0  0  0  0  0  0  0  0  0  0
   13.1183   -9.5658    0.0000 C   0  0  0  0  0  0  0  0  0  0  0  0
    8.0421   -8.4101    0.0000 C   0  0  0  0  0  0  0  0  0  0  0  0
    7.2698   -8.7005    0.0000 C   0  0  0  0  0  0  0  0  0  0  0  0
    7.3073   -9.5246    0.0000 C   0  0  0  0  0  0  0  0  0  0  0  0
    8.1026   -9.7436    0.0000 N   0  0  0  0  0  0  0  0  0  0  0  0
   13.6310  -10.2086    0.0000 N   0  0  0  0  0  0  0  0  0  0  0  0
   14.4032   -9.9183    0.0000 C   0  0  0  0  0  0  0  0  0  0  0  0
   14.3659   -9.0942    0.0000 C   0  0  0  0  0  0  0  0  0  0  0  0
   13.5705   -8.8752    0.0000 S   0  0  0  0  0  0  0  0  0  0  0  0
   15.0105   -8.5794    0.0000 C   0  0  0  0  0  0  0  0  0  0  0  0
   15.7787   -8.8805    0.0000 O   0  0  0  0  0  0  0  0  0  0  0  0
   14.8871   -7.7638    0.0000 O   0  0  0  0  0  0  0  0  0  0  0  0
    6.6626  -10.0393    0.0000 C   0  0  0  0  0  0  0  0  0  0  0  0
    8.2633   -7.6154    0.0000 Cl  0  0  0  0  0  0  0  0  0  0  0  0
    6.5811   -8.2463    0.0000 Cl  0  0  0  0  0  0  0  0  0  0  0  0
    9.9369  -12.5620    0.0000 O   0  0  0  0  0  0  0  0  0  0  0  0
    9.1125  -12.5951    0.0000 C   0  0  0  0  0  0  0  0  0  0  0  0
  1  2  1  1  0  0  0
  1  6  1  0  0  0  0
  2  3  1  0  0  0  0
  4  3  1  0  0  0  0
  4  5  1  0  0  0  0
  5  6  1  0  0  0  0
  7  8  1  0  0  0  0
  7 11  1  0  0  0  0
  9  8  1  0  0  0  0
  1  9  1  0  0  0  0
  1 10  1  0  0  0  0
 10 11  1  0  0  0  0
  9 12  1  6  0  0  0
 12 13  1  0  0  0  0
 13 14  1  0  0  0  0
 13 15  2  0  0  0  0
 11 16  1  0  0  0  0
 14 17  4  0  0  0  0
 17 18  4  0  0  0  0
 18 19  4  0  0  0  0
 19 20  4  0  0  0  0
 20 14  4  0  0  0  0
 16 21  4  0  0  0  0
 21 22  4  0  0  0  0
 22 23  4  0  0  0  0
 23 24  4  0  0  0  0
 24 16  4  0  0  0  0
 23 25  1  0  0  0  0
 25 26  1  0  0  0  0
 25 27  2  0  0  0  0
 19 28  1  0  0  0  0
 17 29  1  0  0  0  0
 18 30  1  0  0  0  0
  4 31  1  6  0  0  0
 31 32  1  0  0  0  0
M  STY  1   1 DAT
M  SAL   1  1  20
M  SDT   1 MRV_IMPLICIT_H                                        
M  SDD   1     0.0000    0.0000    DR    ALL  0       0  
M  SED   1 IMPL_H1
M  END
> <From> 
www.bindingDB.org

> <BindingDB Reactant_set_id>
50271402

> <Ligand InChI>
InChI=1S/C19H22Cl2N4O6S/c1-9-13(20)14(21)15(23-9)16(26)24-12-3-4-25(18-22-5-11(32-18)17(27)28)8-19(12)30-6-10(29-2)7-31-19/h5,10,12,23H,3-4,6-8H2,1-2H3,(H,24,26)(H,27,28)/t10-,12-,19+/m1/s1

> <Ligand InChI Key>
RINSZEUILDCFND-WLCUFGOBSA-N

> <BindingDB MonomerID>
50047336

> <BindingDB Ligand Name>
CHEMBL3314545

> <Target Name Assigned by Curator or DataSource>
DNA Gyrase Subunit B

> <Target Source Organism According to Curator or DataSource>
Staphylococcus aureus

> <Ki (nM)>


> <IC50 (nM)>
<10.0

> <Kd (nM)>


> <EC50 (nM)>


> <kon (M-1-s-1)>


> <koff (s-1)>


> <pH>


> <Temp C>


> <Curation/DataSource>
ChEMBL

> <Article DOI>
10.1021/jm500462x

> <PMID>
24959892

> <PubChem AID>


> <Patent Number>


> <Authors>
Basarab, GS; Hill, PJ; Garner, CE; Hull, K; Green, O; Sherer, BA; Dangel, PB; Manchester, JI; Bist, S; Hauck, S; Zhou, F; Uria-Nickelsen, M; Illingworth, R; Alm, R; Rooney, M; Eakin, AE

> <Institution>
AstraZeneca

> <Link to Ligand in BindingDB>
http://www.bindingdb.org/bind/chemsearch/marvin/MolStructure.jsp?monomerid=50047336

> <Link to Ligand-Target Pair in BindingDB>
http://www.bindingdb.org/jsp/dbsearch/PrimarySearch_ki.jsp?energyterm=kJ/mole&tag=pol&polymerid=2626&target=DNA+Gyrase+Subunit+B&column=ki&startPg=0&Increment=50&submit=Search

> <Link to Ligand-Target Pair in BindingDB>
http://www.bindingdb.org/jsp/dbsearch/PrimarySearch_ki.jsp?energyterm=kJ/mole&tag=r21&monomerid=50047336&enzyme=DNA+Gyrase+Subunit+B&column=ki&startPg=0&Increment=50&submit=Search

> <Ligand HET ID in PDB>


> <PDB ID(s) for Ligand-Target Complex>


> <PubChem CID>
25030708

> <PubChem SID>
313068766

> <ChEBI ID of Ligand>


> <ChEMBL ID of Ligand>


> <DrugBank ID of Ligand>


> <IUPHAR_GRAC ID of Ligand>


> <KEGG ID of Ligand>


> <ZINC ID of Ligand>


> <Number of Protein Chains in Target (>1 implies a multichain complex)>
1

> <BindingDB Target Chain Sequence>
MVTALSDVNNTDNYGAGQIQVLEGLEAVRKRPGMYIGSTSERGLHHLVWEIVDNSIDEALAGYANQIEVVIEKDNWIKVTDNGRGIPVDIQEKMGRPAVEVILTVLHAGGKFGGGGYKVSGGLHGVGSSVVNALSQDLEVYVHRNETIYHQAYKKGVPQFDLKEVGTTDKTGTVIRFKADGEIFTETTVYNYETLQQRIRELAFLNKGIQITLRDERDEENVREDSYHYEGGIKSYVELLNENKEPIHDEPIYIHQSKDDIEVEIAIQYNSGYATNLLTYANNIHTYEGGTHEDGFKRALTRVLNSYGLSSKIMKEEKDRLSGEDTREGMTAIISIKHGDPQFEGQTKTKLGNSEVRQVVDKLFSEHFERFLYENPQVARTVVEKGIMAARARVAAKKAREVTRRKSALDVASLPGKLADCSSKSPEECEIFLVEGDSAGGSTKSGRDSRTQAILPLRGKILNVEKARLDRILNNNEIRQMITAFGTGIGGDFDLAKARYHKIVIMTDADVDGAHIRTLLLTFFYRFMRPLIEAGYVYIAQPPLYKLTQGKQKYYVYNDRELDKLKSELNPTPKWSIARYKGLGEMNADQLWETTMNPEHRALLQVKLEDAIEADQTFEMLMGDVVENRRQFIEDNAVYANLDF

> <PDB ID(s) of Target Chain>


> <UniProt (SwissProt) Recommended Name of Target Chain>
DNA gyrase subunit B

> <UniProt (SwissProt) Entry Name of Target Chain>
GYRB_STAAU

> <UniProt (SwissProt) Primary ID of Target Chain>
P0A0K8

> <UniProt (SwissProt) Secondary ID(s) of Target Chain>
P20832

> <UniProt (SwissProt) Alternative ID(s) of Target Chain>


> <UniProt (TrEMBL) Submitted Name of Target Chain>


> <UniProt (TrEMBL) Entry Name of Target Chain>


> <UniProt (TrEMBL) Primary ID of Target Chain>


> <UniProt (TrEMBL) Secondary ID(s) of Target Chain>


> <UniProt (TrEMBL) Alternative ID(s) of Target Chain>


$$$$

  SciTegic02271514412D

 32 35  0  0  0  0            999 V2000
   11.0860  -10.3712    0.0000 C   0  0  1  0  0  0
   10.2609  -10.4055    0.0000 O   0  0
    9.8801  -11.1333    0.0000 C   0  0
   10.3202  -11.8315    0.0000 C   0  0
   11.1454  -11.7971    0.0000 C   0  0
   11.5305  -11.0646    0.0000 O   0  0
   11.8457   -8.9108    0.0000 C   0  0
   11.0216   -8.9482    0.0000 C   0  0
   10.6460   -9.6780    0.0000 C   0  0  1  0  0  0
   11.9103  -10.3333    0.0000 C   0  0
   12.2942   -9.6032    0.0000 N   0  0
    9.8219   -9.7155    0.0000 N   0  0
    9.3775   -9.0204    0.0000 C   0  0
    8.5533   -9.0579    0.0000 C   0  0
    9.7570   -8.2880    0.0000 O   0  0
   13.1183   -9.5657    0.0000 C   0  0
    8.0420   -8.4101    0.0000 C   0  0
    7.2698   -8.7004    0.0000 C   0  0
    7.3072   -9.5246    0.0000 C   0  0
    8.1026   -9.7435    0.0000 N   0  0
   13.6310  -10.2086    0.0000 N   0  0
   14.4031   -9.9183    0.0000 C   0  0
   14.3658   -9.0941    0.0000 C   0  0
   13.5704   -8.8752    0.0000 S   0  0
   15.0104   -8.5794    0.0000 C   0  0
   15.7786   -8.8804    0.0000 O   0  0
   14.8870   -7.7638    0.0000 O   0  0
    6.6625  -10.0392    0.0000 C   0  0
    8.2633   -7.6154    0.0000 Cl  0  0
    6.5811   -8.2462    0.0000 Cl  0  0
    9.5158  -12.0470    0.0000 C   0  0
   10.3202  -12.6643    0.0000 C   0  0
  1  2  1  1
  1  6  1  0
  2  3  1  0
  3  4  1  0
  4  5  1  0
  5  6  1  0
  7  8  1  0
  7 11  1  0
  8  9  1  0
  9  1  1  0
  1 10  1  0
 10 11  1  0
  9 12  1  6
 12 13  1  0
 13 14  1  0
 13 15  2  0
 11 16  1  0
 14 17  2  0
 17 18  1  0
 18 19  2  0
 19 20  1  0
 20 14  1  0
 16 21  2  0
 21 22  1  0
 22 23  2  0
 23 24  1  0
 24 16  1  0
 23 25  1  0
 25 26  1  0
 25 27  2  0
 19 28  1  0
 17 29  1  0
 18 30  1  0
  4 31  1  0
  4 32  1  0
M  END
> <From> 
www.bindingDB.org

> <BindingDB Reactant_set_id>
50271403

> <Ligand InChI>
InChI=1S/C20H24Cl2N4O5S/c1-10-13(21)14(22)15(24-10)16(27)25-12-4-5-26(18-23-6-11(32-18)17(28)29)7-20(12)30-8-19(2,3)9-31-20/h6,12,24H,4-5,7-9H2,1-3H3,(H,25,27)(H,28,29)/t12-/m1/s1

> <Ligand InChI Key>
MJECADBTLKOWBL-GFCCVEGCSA-N

> <BindingDB MonomerID>
50047337

> <BindingDB Ligand Name>
CHEMBL3314546

> <Target Name Assigned by Curator or DataSource>
DNA Gyrase Subunit B

> <Target Source Organism According to Curator or DataSource>
Staphylococcus aureus

> <Ki (nM)>


> <IC50 (nM)>
<10.0

> <Kd (nM)>


> <EC50 (nM)>


> <kon (M-1-s-1)>


> <koff (s-1)>


> <pH>


> <Temp C>


> <Curation/DataSource>
ChEMBL

> <Article DOI>
10.1021/jm500462x

> <PMID>
24959892

> <PubChem AID>


> <Patent Number>


> <Authors>
Basarab, GS; Hill, PJ; Garner, CE; Hull, K; Green, O; Sherer, BA; Dangel, PB; Manchester, JI; Bist, S; Hauck, S; Zhou, F; Uria-Nickelsen, M; Illingworth, R; Alm, R; Rooney, M; Eakin, AE

> <Institution>
AstraZeneca

> <Link to Ligand in BindingDB>
http://www.bindingdb.org/bind/chemsearch/marvin/MolStructure.jsp?monomerid=50047337

> <Link to Ligand-Target Pair in BindingDB>
http://www.bindingdb.org/jsp/dbsearch/PrimarySearch_ki.jsp?energyterm=kJ/mole&tag=pol&polymerid=2626&target=DNA+Gyrase+Subunit+B&column=ki&startPg=0&Increment=50&submit=Search

> <Link to Ligand-Target Pair in BindingDB>
http://www.bindingdb.org/jsp/dbsearch/PrimarySearch_ki.jsp?energyterm=kJ/mole&tag=r21&monomerid=50047337&enzyme=DNA+Gyrase+Subunit+B&column=ki&startPg=0&Increment=50&submit=Search

> <Ligand HET ID in PDB>


> <PDB ID(s) for Ligand-Target Complex>


> <PubChem CID>
118707650

> <PubChem SID>
103978015

> <ChEBI ID of Ligand>


> <ChEMBL ID of Ligand>
CHEMBL34450

> <DrugBank ID of Ligand>


> <IUPHAR_GRAC ID of Ligand>


> <KEGG ID of Ligand>


> <ZINC ID of Ligand>
ZINC03996017

> <Number of Protein Chains in Target (>1 implies a multichain complex)>
1

> <BindingDB Target Chain Sequence>
MVTALSDVNNTDNYGAGQIQVLEGLEAVRKRPGMYIGSTSERGLHHLVWEIVDNSIDEALAGYANQIEVVIEKDNWIKVTDNGRGIPVDIQEKMGRPAVEVILTVLHAGGKFGGGGYKVSGGLHGVGSSVVNALSQDLEVYVHRNETIYHQAYKKGVPQFDLKEVGTTDKTGTVIRFKADGEIFTETTVYNYETLQQRIRELAFLNKGIQITLRDERDEENVREDSYHYEGGIKSYVELLNENKEPIHDEPIYIHQSKDDIEVEIAIQYNSGYATNLLTYANNIHTYEGGTHEDGFKRALTRVLNSYGLSSKIMKEEKDRLSGEDTREGMTAIISIKHGDPQFEGQTKTKLGNSEVRQVVDKLFSEHFERFLYENPQVARTVVEKGIMAARARVAAKKAREVTRRKSALDVASLPGKLADCSSKSPEECEIFLVEGDSAGGSTKSGRDSRTQAILPLRGKILNVEKARLDRILNNNEIRQMITAFGTGIGGDFDLAKARYHKIVIMTDADVDGAHIRTLLLTFFYRFMRPLIEAGYVYIAQPPLYKLTQGKQKYYVYNDRELDKLKSELNPTPKWSIARYKGLGEMNADQLWETTMNPEHRALLQVKLEDAIEADQTFEMLMGDVVENRRQFIEDNAVYANLDF

> <PDB ID(s) of Target Chain>


> <UniProt (SwissProt) Recommended Name of Target Chain>
DNA gyrase subunit B

> <UniProt (SwissProt) Entry Name of Target Chain>
GYRB_STAAU

> <UniProt (SwissProt) Primary ID of Target Chain>
P0A0K8

> <UniProt (SwissProt) Secondary ID(s) of Target Chain>
P20832

> <UniProt (SwissProt) Alternative ID(s) of Target Chain>


> <UniProt (TrEMBL) Submitted Name of Target Chain>


> <UniProt (TrEMBL) Entry Name of Target Chain>


> <UniProt (TrEMBL) Primary ID of Target Chain>


> <UniProt (TrEMBL) Secondary ID(s) of Target Chain>


> <UniProt (TrEMBL) Alternative ID(s) of Target Chain>


$$$$

  Mrv0541 03271611212D          

 33 36  0  0  0  0            999 V2000
   20.6803   -6.4200    0.0000 N   0  0  0  0  0  0  0  0  0  0  0  0
   21.5044   -6.3825    0.0000 C   0  0  0  0  0  0  0  0  0  0  0  0
   22.7893   -6.7352    0.0000 C   0  0  0  0  0  0  0  0  0  0  0  0
   14.9671   -5.0630    0.0000 Cl  0  0  0  0  0  0  0  0  0  0  0  0
   22.7520   -5.9110    0.0000 C   0  0  0  0  0  0  0  0  0  0  0  0
   16.4886   -6.5603    0.0000 N   0  0  0  0  0  0  0  0  0  0  0  0
   15.0485   -6.8561    0.0000 C   0  0  0  0  0  0  0  0  0  0  0  0
   17.7634   -5.8373    0.0000 C   0  0  0  0  0  0  0  0  0  0  0  0
   24.1647   -5.6972    0.0000 O   0  0  0  0  0  0  0  0  0  0  0  0
   19.4076   -5.7650    0.0000 C   0  0  0  0  0  0  0  0  0  0  0  0
   15.6558   -5.5172    0.0000 C   0  0  0  0  0  0  0  0  0  0  0  0
   21.9566   -5.6920    0.0000 S   0  0  0  0  0  0  0  0  0  0  0  0
   23.2732   -4.5806    0.0000 O   0  0  0  0  0  0  0  0  0  0  0  0
   22.0171   -7.0254    0.0000 N   0  0  0  0  0  0  0  0  0  0  0  0
   20.2964   -7.1502    0.0000 C   0  0  0  0  0  0  0  0  0  0  0  0
   18.2674   -7.9557    0.0000 C   0  0  0  0  0  0  0  0  0  0  0  0
   16.6492   -4.4322    0.0000 Cl  0  0  0  0  0  0  0  0  0  0  0  0
   19.4722   -7.1875    0.0000 C   0  0  2  0  0  0  0  0  0  0  0  0
   19.0916   -7.9194    0.0000 O   0  0  0  0  0  0  0  0  0  0  0  0
   18.2079   -6.5323    0.0000 N   0  0  0  0  0  0  0  0  0  0  0  0
   23.4781   -7.1892    0.0000 C   0  0  0  0  0  0  0  0  0  0  0  0
   16.4280   -5.2270    0.0000 C   0  0  0  0  0  0  0  0  0  0  0  0
   15.6932   -6.3414    0.0000 C   0  0  0  0  0  0  0  0  0  0  0  0
   23.3966   -5.3962    0.0000 C   0  0  0  0  0  0  0  0  0  0  0  0
   19.0321   -6.4948    0.0000 C   0  0  2  0  0  0  0  0  0  0  0  0
   20.2318   -5.7277    0.0000 C   0  0  0  0  0  0  0  0  0  0  0  0
   18.1431   -5.1048    0.0000 O   0  0  0  0  0  0  0  0  0  0  0  0
   16.9394   -5.8747    0.0000 C   0  0  0  0  0  0  0  0  0  0  0  0
   23.5157   -8.0134    0.0000 N   0  0  0  0  0  0  0  0  0  0  0  0
   24.3111   -8.2323    0.0000 C   0  0  0  0  0  0  0  0  0  0  0  0
   24.7651   -7.5435    0.0000 C   0  0  0  0  0  0  0  0  0  0  0  0
   24.2503   -6.8989    0.0000 N   0  0  0  0  0  0  0  0  0  0  0  0
   22.8711   -8.5282    0.0000 C   0  0  0  0  0  0  0  0  0  0  0  0
 22 17  1  0  0  0  0
 19 16  1  0  0  0  0
 14  3  4  0  0  0  0
 26  1  1  0  0  0  0
  8 28  1  0  0  0  0
 11  4  1  0  0  0  0
 24 13  2  0  0  0  0
 22 11  4  0  0  0  0
  2 14  4  0  0  0  0
 18 25  1  0  0  0  0
 28 22  4  0  0  0  0
  5 24  1  0  0  0  0
  1  2  1  0  0  0  0
 18 19  1  6  0  0  0
 18 15  1  0  0  0  0
 23  6  4  0  0  0  0
 12  2  4  0  0  0  0
 24  9  1  0  0  0  0
 26 10  1  0  0  0  0
  8 27  2  0  0  0  0
 11 23  4  0  0  0  0
  3 21  1  0  0  0  0
  5 12  4  0  0  0  0
  6 28  4  0  0  0  0
  3  5  4  0  0  0  0
 25 10  1  0  0  0  0
 23  7  1  0  0  0  0
 25 20  1  6  0  0  0
 20  8  1  0  0  0  0
 15  1  1  0  0  0  0
 21 29  4  0  0  0  0
 21 32  4  0  0  0  0
 29 30  4  0  0  0  0
 30 31  4  0  0  0  0
 31 32  4  0  0  0  0
 29 33  1  0  0  0  0
M  STY  1   1 DAT
M  SAL   1  1   6
M  SDT   1 MRV_IMPLICIT_H                                        
M  SDD   1     0.0000    0.0000    DR    ALL  0       0  
M  SED   1 IMPL_H1
M  END
> <From> 
www.bindingDB.org

> <BindingDB Reactant_set_id>
50271404

> <Ligand InChI>
InChI=1S/C20H22Cl2N6O4S/c1-9-12(21)13(22)14(24-9)18(29)25-10-4-6-28(8-11(10)32-3)20-26-15(16(33-20)19(30)31)17-23-5-7-27(17)2/h5,7,10-11,24H,4,6,8H2,1-3H3,(H,25,29)(H,30,31)/t10-,11+/m1/s1

> <Ligand InChI Key>
WGUQUFAQRYHLPM-MNOVXSKESA-N

> <BindingDB MonomerID>
50047338

> <BindingDB Ligand Name>
CHEMBL3314582

> <Target Name Assigned by Curator or DataSource>
DNA Gyrase Subunit B

> <Target Source Organism According to Curator or DataSource>
Staphylococcus aureus

> <Ki (nM)>


> <IC50 (nM)>
<10.0

> <Kd (nM)>


> <EC50 (nM)>


> <kon (M-1-s-1)>


> <koff (s-1)>


> <pH>


> <Temp C>


> <Curation/DataSource>
ChEMBL

> <Article DOI>
10.1021/jm500462x

> <PMID>
24959892

> <PubChem AID>


> <Patent Number>


> <Authors>
Basarab, GS; Hill, PJ; Garner, CE; Hull, K; Green, O; Sherer, BA; Dangel, PB; Manchester, JI; Bist, S; Hauck, S; Zhou, F; Uria-Nickelsen, M; Illingworth, R; Alm, R; Rooney, M; Eakin, AE

> <Institution>
AstraZeneca

> <Link to Ligand in BindingDB>
http://www.bindingdb.org/bind/chemsearch/marvin/MolStructure.jsp?monomerid=50047338

> <Link to Ligand-Target Pair in BindingDB>
http://www.bindingdb.org/jsp/dbsearch/PrimarySearch_ki.jsp?energyterm=kJ/mole&tag=pol&polymerid=2626&target=DNA+Gyrase+Subunit+B&column=ki&startPg=0&Increment=50&submit=Search

> <Link to Ligand-Target Pair in BindingDB>
http://www.bindingdb.org/jsp/dbsearch/PrimarySearch_ki.jsp?energyterm=kJ/mole&tag=r21&monomerid=50047338&enzyme=DNA+Gyrase+Subunit+B&column=ki&startPg=0&Increment=50&submit=Search

> <Ligand HET ID in PDB>


> <PDB ID(s) for Ligand-Target Complex>


> <PubChem CID>
25223419

> <PubChem SID>
313068767

> <ChEBI ID of Ligand>


> <ChEMBL ID of Ligand>


> <DrugBank ID of Ligand>


> <IUPHAR_GRAC ID of Ligand>


> <KEGG ID of Ligand>


> <ZINC ID of Ligand>


> <Number of Protein Chains in Target (>1 implies a multichain complex)>
1

> <BindingDB Target Chain Sequence>
MVTALSDVNNTDNYGAGQIQVLEGLEAVRKRPGMYIGSTSERGLHHLVWEIVDNSIDEALAGYANQIEVVIEKDNWIKVTDNGRGIPVDIQEKMGRPAVEVILTVLHAGGKFGGGGYKVSGGLHGVGSSVVNALSQDLEVYVHRNETIYHQAYKKGVPQFDLKEVGTTDKTGTVIRFKADGEIFTETTVYNYETLQQRIRELAFLNKGIQITLRDERDEENVREDSYHYEGGIKSYVELLNENKEPIHDEPIYIHQSKDDIEVEIAIQYNSGYATNLLTYANNIHTYEGGTHEDGFKRALTRVLNSYGLSSKIMKEEKDRLSGEDTREGMTAIISIKHGDPQFEGQTKTKLGNSEVRQVVDKLFSEHFERFLYENPQVARTVVEKGIMAARARVAAKKAREVTRRKSALDVASLPGKLADCSSKSPEECEIFLVEGDSAGGSTKSGRDSRTQAILPLRGKILNVEKARLDRILNNNEIRQMITAFGTGIGGDFDLAKARYHKIVIMTDADVDGAHIRTLLLTFFYRFMRPLIEAGYVYIAQPPLYKLTQGKQKYYVYNDRELDKLKSELNPTPKWSIARYKGLGEMNADQLWETTMNPEHRALLQVKLEDAIEADQTFEMLMGDVVENRRQFIEDNAVYANLDF

> <PDB ID(s) of Target Chain>


> <UniProt (SwissProt) Recommended Name of Target Chain>
DNA gyrase subunit B

> <UniProt (SwissProt) Entry Name of Target Chain>
GYRB_STAAU

> <UniProt (SwissProt) Primary ID of Target Chain>
P0A0K8

> <UniProt (SwissProt) Secondary ID(s) of Target Chain>
P20832

> <UniProt (SwissProt) Alternative ID(s) of Target Chain>


> <UniProt (TrEMBL) Submitted Name of Target Chain>


> <UniProt (TrEMBL) Entry Name of Target Chain>


> <UniProt (TrEMBL) Primary ID of Target Chain>


> <UniProt (TrEMBL) Secondary ID(s) of Target Chain>


> <UniProt (TrEMBL) Alternative ID(s) of Target Chain>


$$$$

  Mrv0541 03271611212D          

 33 36  0  0  0  0            999 V2000
   20.6803   -6.4200    0.0000 N   0  0  0  0  0  0  0  0  0  0  0  0
   21.5044   -6.3825    0.0000 C   0  0  0  0  0  0  0  0  0  0  0  0
   22.7893   -6.7352    0.0000 C   0  0  0  0  0  0  0  0  0  0  0  0
   14.9671   -5.0630    0.0000 Cl  0  0  0  0  0  0  0  0  0  0  0  0
   22.7520   -5.9110    0.0000 C   0  0  0  0  0  0  0  0  0  0  0  0
   16.4886   -6.5603    0.0000 N   0  0  0  0  0  0  0  0  0  0  0  0
   15.0485   -6.8561    0.0000 C   0  0  0  0  0  0  0  0  0  0  0  0
   17.7634   -5.8373    0.0000 C   0  0  0  0  0  0  0  0  0  0  0  0
   24.1647   -5.6972    0.0000 O   0  0  0  0  0  0  0  0  0  0  0  0
   19.4076   -5.7650    0.0000 C   0  0  0  0  0  0  0  0  0  0  0  0
   15.6558   -5.5172    0.0000 C   0  0  0  0  0  0  0  0  0  0  0  0
   21.9566   -5.6920    0.0000 S   0  0  0  0  0  0  0  0  0  0  0  0
   23.2732   -4.5806    0.0000 O   0  0  0  0  0  0  0  0  0  0  0  0
   22.0171   -7.0254    0.0000 N   0  0  0  0  0  0  0  0  0  0  0  0
   20.2964   -7.1502    0.0000 C   0  0  0  0  0  0  0  0  0  0  0  0
   18.2674   -7.9557    0.0000 C   0  0  0  0  0  0  0  0  0  0  0  0
   16.6492   -4.4322    0.0000 Cl  0  0  0  0  0  0  0  0  0  0  0  0
   19.4722   -7.1875    0.0000 C   0  0  2  0  0  0  0  0  0  0  0  0
   19.0916   -7.9194    0.0000 O   0  0  0  0  0  0  0  0  0  0  0  0
   18.2079   -6.5323    0.0000 N   0  0  0  0  0  0  0  0  0  0  0  0
   23.4781   -7.1892    0.0000 C   0  0  0  0  0  0  0  0  0  0  0  0
   16.4280   -5.2270    0.0000 C   0  0  0  0  0  0  0  0  0  0  0  0
   15.6932   -6.3414    0.0000 C   0  0  0  0  0  0  0  0  0  0  0  0
   23.3966   -5.3962    0.0000 C   0  0  0  0  0  0  0  0  0  0  0  0
   19.0321   -6.4948    0.0000 C   0  0  2  0  0  0  0  0  0  0  0  0
   20.2318   -5.7277    0.0000 C   0  0  0  0  0  0  0  0  0  0  0  0
   18.1431   -5.1048    0.0000 O   0  0  0  0  0  0  0  0  0  0  0  0
   16.9394   -5.8747    0.0000 C   0  0  0  0  0  0  0  0  0  0  0  0
   23.5157   -8.0134    0.0000 N   0  0  0  0  0  0  0  0  0  0  0  0
   24.3111   -8.2323    0.0000 C   0  0  0  0  0  0  0  0  0  0  0  0
   24.7651   -7.5435    0.0000 N   0  0  0  0  0  0  0  0  0  0  0  0
   24.2503   -6.8989    0.0000 C   0  0  0  0  0  0  0  0  0  0  0  0
   25.5893   -7.5059    0.0000 C   0  0  0  0  0  0  0  0  0  0  0  0
 22 17  1  0  0  0  0
 19 16  1  0  0  0  0
 14  3  4  0  0  0  0
 26  1  1  0  0  0  0
  8 28  1  0  0  0  0
 11  4  1  0  0  0  0
 24 13  2  0  0  0  0
 22 11  4  0  0  0  0
  2 14  4  0  0  0  0
 18 25  1  0  0  0  0
 28 22  4  0  0  0  0
  5 24  1  0  0  0  0
  1  2  1  0  0  0  0
 18 19  1  6  0  0  0
 18 15  1  0  0  0  0
 23  6  4  0  0  0  0
 12  2  4  0  0  0  0
 24  9  1  0  0  0  0
 26 10  1  0  0  0  0
  8 27  2  0  0  0  0
 11 23  4  0  0  0  0
  3 21  1  0  0  0  0
  5 12  4  0  0  0  0
  6 28  4  0  0  0  0
  3  5  4  0  0  0  0
 25 10  1  0  0  0  0
 23  7  1  0  0  0  0
 25 20  1  6  0  0  0
 20  8  1  0  0  0  0
 15  1  1  0  0  0  0
 21 29  4  0  0  0  0
 21 32  4  0  0  0  0
 29 30  4  0  0  0  0
 30 31  4  0  0  0  0
 31 32  4  0  0  0  0
 31 33  1  0  0  0  0
M  STY  1   1 DAT
M  SAL   1  1   6
M  SDT   1 MRV_IMPLICIT_H                                        
M  SDD   1     0.0000    0.0000    DR    ALL  0       0  
M  SED   1 IMPL_H1
M  END
> <From> 
www.bindingDB.org

> <BindingDB Reactant_set_id>
50271405

> <Ligand InChI>
InChI=1S/C20H22Cl2N6O4S/c1-9-13(21)14(22)16(24-9)18(29)25-10-4-5-28(7-12(10)32-3)20-26-15(17(33-20)19(30)31)11-6-27(2)8-23-11/h6,8,10,12,24H,4-5,7H2,1-3H3,(H,25,29)(H,30,31)/t10-,12+/m1/s1

> <Ligand InChI Key>
MVAFQBHRHCIMSF-PWSUYJOCSA-N

> <BindingDB MonomerID>
50047339

> <BindingDB Ligand Name>
CHEMBL3314583

> <Target Name Assigned by Curator or DataSource>
DNA Gyrase Subunit B

> <Target Source Organism According to Curator or DataSource>
Staphylococcus aureus

> <Ki (nM)>


> <IC50 (nM)>
<10.0

> <Kd (nM)>


> <EC50 (nM)>


> <kon (M-1-s-1)>


> <koff (s-1)>


> <pH>


> <Temp C>


> <Curation/DataSource>
ChEMBL

> <Article DOI>
10.1021/jm500462x

> <PMID>
24959892

> <PubChem AID>


> <Patent Number>


> <Authors>
Basarab, GS; Hill, PJ; Garner, CE; Hull, K; Green, O; Sherer, BA; Dangel, PB; Manchester, JI; Bist, S; Hauck, S; Zhou, F; Uria-Nickelsen, M; Illingworth, R; Alm, R; Rooney, M; Eakin, AE

> <Institution>
AstraZeneca

> <Link to Ligand in BindingDB>
http://www.bindingdb.org/bind/chemsearch/marvin/MolStructure.jsp?monomerid=50047339

> <Link to Ligand-Target Pair in BindingDB>
http://www.bindingdb.org/jsp/dbsearch/PrimarySearch_ki.jsp?energyterm=kJ/mole&tag=pol&polymerid=2626&target=DNA+Gyrase+Subunit+B&column=ki&startPg=0&Increment=50&submit=Search

> <Link to Ligand-Target Pair in BindingDB>
http://www.bindingdb.org/jsp/dbsearch/PrimarySearch_ki.jsp?energyterm=kJ/mole&tag=r21&monomerid=50047339&enzyme=DNA+Gyrase+Subunit+B&column=ki&startPg=0&Increment=50&submit=Search

> <Ligand HET ID in PDB>


> <PDB ID(s) for Ligand-Target Complex>


> <PubChem CID>
25223721

> <PubChem SID>
313068768

> <ChEBI ID of Ligand>


> <ChEMBL ID of Ligand>


> <DrugBank ID of Ligand>


> <IUPHAR_GRAC ID of Ligand>


> <KEGG ID of Ligand>


> <ZINC ID of Ligand>


> <Number of Protein Chains in Target (>1 implies a multichain complex)>
1

> <BindingDB Target Chain Sequence>
MVTALSDVNNTDNYGAGQIQVLEGLEAVRKRPGMYIGSTSERGLHHLVWEIVDNSIDEALAGYANQIEVVIEKDNWIKVTDNGRGIPVDIQEKMGRPAVEVILTVLHAGGKFGGGGYKVSGGLHGVGSSVVNALSQDLEVYVHRNETIYHQAYKKGVPQFDLKEVGTTDKTGTVIRFKADGEIFTETTVYNYETLQQRIRELAFLNKGIQITLRDERDEENVREDSYHYEGGIKSYVELLNENKEPIHDEPIYIHQSKDDIEVEIAIQYNSGYATNLLTYANNIHTYEGGTHEDGFKRALTRVLNSYGLSSKIMKEEKDRLSGEDTREGMTAIISIKHGDPQFEGQTKTKLGNSEVRQVVDKLFSEHFERFLYENPQVARTVVEKGIMAARARVAAKKAREVTRRKSALDVASLPGKLADCSSKSPEECEIFLVEGDSAGGSTKSGRDSRTQAILPLRGKILNVEKARLDRILNNNEIRQMITAFGTGIGGDFDLAKARYHKIVIMTDADVDGAHIRTLLLTFFYRFMRPLIEAGYVYIAQPPLYKLTQGKQKYYVYNDRELDKLKSELNPTPKWSIARYKGLGEMNADQLWETTMNPEHRALLQVKLEDAIEADQTFEMLMGDVVENRRQFIEDNAVYANLDF

> <PDB ID(s) of Target Chain>


> <UniProt (SwissProt) Recommended Name of Target Chain>
DNA gyrase subunit B

> <UniProt (SwissProt) Entry Name of Target Chain>
GYRB_STAAU

> <UniProt (SwissProt) Primary ID of Target Chain>
P0A0K8

> <UniProt (SwissProt) Secondary ID(s) of Target Chain>
P20832

> <UniProt (SwissProt) Alternative ID(s) of Target Chain>


> <UniProt (TrEMBL) Submitted Name of Target Chain>


> <UniProt (TrEMBL) Entry Name of Target Chain>


> <UniProt (TrEMBL) Primary ID of Target Chain>


> <UniProt (TrEMBL) Secondary ID(s) of Target Chain>


> <UniProt (TrEMBL) Alternative ID(s) of Target Chain>


$$$$

  Mrv0541 03271611212D          

 32 35  0  0  0  0            999 V2000
   20.6803   -6.4200    0.0000 N   0  0  0  0  0  0  0  0  0  0  0  0
   21.5044   -6.3825    0.0000 C   0  0  0  0  0  0  0  0  0  0  0  0
   22.7893   -6.7352    0.0000 C   0  0  0  0  0  0  0  0  0  0  0  0
   14.9671   -5.0630    0.0000 Cl  0  0  0  0  0  0  0  0  0  0  0  0
   22.7520   -5.9110    0.0000 C   0  0  0  0  0  0  0  0  0  0  0  0
   16.4886   -6.5603    0.0000 N   0  0  0  0  0  0  0  0  0  0  0  0
   15.0485   -6.8561    0.0000 C   0  0  0  0  0  0  0  0  0  0  0  0
   17.7634   -5.8373    0.0000 C   0  0  0  0  0  0  0  0  0  0  0  0
   24.1647   -5.6972    0.0000 O   0  0  0  0  0  0  0  0  0  0  0  0
   19.4076   -5.7650    0.0000 C   0  0  0  0  0  0  0  0  0  0  0  0
   15.6558   -5.5172    0.0000 C   0  0  0  0  0  0  0  0  0  0  0  0
   21.9566   -5.6920    0.0000 S   0  0  0  0  0  0  0  0  0  0  0  0
   23.2732   -4.5806    0.0000 O   0  0  0  0  0  0  0  0  0  0  0  0
   22.0171   -7.0254    0.0000 N   0  0  0  0  0  0  0  0  0  0  0  0
   20.2964   -7.1502    0.0000 C   0  0  0  0  0  0  0  0  0  0  0  0
   18.2674   -7.9557    0.0000 C   0  0  0  0  0  0  0  0  0  0  0  0
   16.6492   -4.4322    0.0000 Cl  0  0  0  0  0  0  0  0  0  0  0  0
   19.4722   -7.1875    0.0000 C   0  0  2  0  0  0  0  0  0  0  0  0
   19.0916   -7.9194    0.0000 O   0  0  0  0  0  0  0  0  0  0  0  0
   18.2079   -6.5323    0.0000 N   0  0  0  0  0  0  0  0  0  0  0  0
   23.4781   -7.1892    0.0000 C   0  0  0  0  0  0  0  0  0  0  0  0
   16.4280   -5.2270    0.0000 C   0  0  0  0  0  0  0  0  0  0  0  0
   15.6932   -6.3414    0.0000 C   0  0  0  0  0  0  0  0  0  0  0  0
   23.3966   -5.3962    0.0000 C   0  0  0  0  0  0  0  0  0  0  0  0
   19.0321   -6.4948    0.0000 C   0  0  2  0  0  0  0  0  0  0  0  0
   20.2318   -5.7277    0.0000 C   0  0  0  0  0  0  0  0  0  0  0  0
   18.1431   -5.1048    0.0000 O   0  0  0  0  0  0  0  0  0  0  0  0
   16.9394   -5.8747    0.0000 C   0  0  0  0  0  0  0  0  0  0  0  0
   23.5157   -8.0134    0.0000 C   0  0  0  0  0  0  0  0  0  0  0  0
   24.3111   -8.2323    0.0000 C   0  0  0  0  0  0  0  0  0  0  0  0
   24.7651   -7.5435    0.0000 N   0  0  0  0  0  0  0  0  0  0  0  0
   24.2503   -6.8989    0.0000 N   0  0  0  0  0  0  0  0  0  0  0  0
 22 17  1  0  0  0  0
 19 16  1  0  0  0  0
 14  3  4  0  0  0  0
 26  1  1  0  0  0  0
  8 28  1  0  0  0  0
 11  4  1  0  0  0  0
 24 13  2  0  0  0  0
 22 11  4  0  0  0  0
  2 14  4  0  0  0  0
 18 25  1  0  0  0  0
 28 22  4  0  0  0  0
  5 24  1  0  0  0  0
  1  2  1  0  0  0  0
 18 19  1  6  0  0  0
 18 15  1  0  0  0  0
 23  6  4  0  0  0  0
 12  2  4  0  0  0  0
 24  9  1  0  0  0  0
 26 10  1  0  0  0  0
  8 27  2  0  0  0  0
 11 23  4  0  0  0  0
  3 21  1  0  0  0  0
  5 12  4  0  0  0  0
  6 28  4  0  0  0  0
  3  5  4  0  0  0  0
 25 10  1  0  0  0  0
 23  7  1  0  0  0  0
 25 20  1  6  0  0  0
 20  8  1  0  0  0  0
 15  1  1  0  0  0  0
 21 29  4  0  0  0  0
 21 32  4  0  0  0  0
 29 30  4  0  0  0  0
 30 31  4  0  0  0  0
 31 32  4  0  0  0  0
M  STY  2   1 DAT   2 DAT
M  SAL   1  1   6
M  SDT   1 MRV_IMPLICIT_H                                        
M  SDD   1     0.0000    0.0000    DR    ALL  0       0  
M  SED   1 IMPL_H1
M  SAL   2  1  32
M  SDT   2 MRV_IMPLICIT_H                                        
M  SDD   2     0.0000    0.0000    DR    ALL  0       0  
M  SED   2 IMPL_H1
M  END
> <From> 
www.bindingDB.org

> <BindingDB Reactant_set_id>
50271406

> <Ligand InChI>
InChI=1S/C19H20Cl2N6O4S/c1-8-12(20)13(21)15(23-8)17(28)24-9-4-6-27(7-11(9)31-2)19-25-14(10-3-5-22-26-10)16(32-19)18(29)30/h3,5,9,11,23H,4,6-7H2,1-2H3,(H,22,26)(H,24,28)(H,29,30)/t9-,11+/m1/s1

> <Ligand InChI Key>
QOAINSIYIQDSPH-KOLCDFICSA-N

> <BindingDB MonomerID>
50047340

> <BindingDB Ligand Name>
CHEMBL3314584

> <Target Name Assigned by Curator or DataSource>
DNA Gyrase Subunit B

> <Target Source Organism According to Curator or DataSource>
Staphylococcus aureus

> <Ki (nM)>


> <IC50 (nM)>
<10.0

> <Kd (nM)>


> <EC50 (nM)>


> <kon (M-1-s-1)>


> <koff (s-1)>


> <pH>


> <Temp C>


> <Curation/DataSource>
ChEMBL

> <Article DOI>
10.1021/jm500462x

> <PMID>
24959892

> <PubChem AID>


> <Patent Number>


> <Authors>
Basarab, GS; Hill, PJ; Garner, CE; Hull, K; Green, O; Sherer, BA; Dangel, PB; Manchester, JI; Bist, S; Hauck, S; Zhou, F; Uria-Nickelsen, M; Illingworth, R; Alm, R; Rooney, M; Eakin, AE

> <Institution>
AstraZeneca

> <Link to Ligand in BindingDB>
http://www.bindingdb.org/bind/chemsearch/marvin/MolStructure.jsp?monomerid=50047340

> <Link to Ligand-Target Pair in BindingDB>
http://www.bindingdb.org/jsp/dbsearch/PrimarySearch_ki.jsp?energyterm=kJ/mole&tag=pol&polymerid=2626&target=DNA+Gyrase+Subunit+B&column=ki&startPg=0&Increment=50&submit=Search

> <Link to Ligand-Target Pair in BindingDB>
http://www.bindingdb.org/jsp/dbsearch/PrimarySearch_ki.jsp?energyterm=kJ/mole&tag=r21&monomerid=50047340&enzyme=DNA+Gyrase+Subunit+B&column=ki&startPg=0&Increment=50&submit=Search

> <Ligand HET ID in PDB>


> <PDB ID(s) for Ligand-Target Complex>


> <PubChem CID>
25223422

> <PubChem SID>
313068769

> <ChEBI ID of Ligand>


> <ChEMBL ID of Ligand>


> <DrugBank ID of Ligand>


> <IUPHAR_GRAC ID of Ligand>


> <KEGG ID of Ligand>


> <ZINC ID of Ligand>


> <Number of Protein Chains in Target (>1 implies a multichain complex)>
1

> <BindingDB Target Chain Sequence>
MVTALSDVNNTDNYGAGQIQVLEGLEAVRKRPGMYIGSTSERGLHHLVWEIVDNSIDEALAGYANQIEVVIEKDNWIKVTDNGRGIPVDIQEKMGRPAVEVILTVLHAGGKFGGGGYKVSGGLHGVGSSVVNALSQDLEVYVHRNETIYHQAYKKGVPQFDLKEVGTTDKTGTVIRFKADGEIFTETTVYNYETLQQRIRELAFLNKGIQITLRDERDEENVREDSYHYEGGIKSYVELLNENKEPIHDEPIYIHQSKDDIEVEIAIQYNSGYATNLLTYANNIHTYEGGTHEDGFKRALTRVLNSYGLSSKIMKEEKDRLSGEDTREGMTAIISIKHGDPQFEGQTKTKLGNSEVRQVVDKLFSEHFERFLYENPQVARTVVEKGIMAARARVAAKKAREVTRRKSALDVASLPGKLADCSSKSPEECEIFLVEGDSAGGSTKSGRDSRTQAILPLRGKILNVEKARLDRILNNNEIRQMITAFGTGIGGDFDLAKARYHKIVIMTDADVDGAHIRTLLLTFFYRFMRPLIEAGYVYIAQPPLYKLTQGKQKYYVYNDRELDKLKSELNPTPKWSIARYKGLGEMNADQLWETTMNPEHRALLQVKLEDAIEADQTFEMLMGDVVENRRQFIEDNAVYANLDF

> <PDB ID(s) of Target Chain>


> <UniProt (SwissProt) Recommended Name of Target Chain>
DNA gyrase subunit B

> <UniProt (SwissProt) Entry Name of Target Chain>
GYRB_STAAU

> <UniProt (SwissProt) Primary ID of Target Chain>
P0A0K8

> <UniProt (SwissProt) Secondary ID(s) of Target Chain>
P20832

> <UniProt (SwissProt) Alternative ID(s) of Target Chain>


> <UniProt (TrEMBL) Submitted Name of Target Chain>


> <UniProt (TrEMBL) Entry Name of Target Chain>


> <UniProt (TrEMBL) Primary ID of Target Chain>


> <UniProt (TrEMBL) Secondary ID(s) of Target Chain>


> <UniProt (TrEMBL) Alternative ID(s) of Target Chain>


$$$$

  Mrv0541 03271611212D          

 32 35  0  0  0  0            999 V2000
   20.6803   -6.4200    0.0000 N   0  0  0  0  0  0  0  0  0  0  0  0
   21.5044   -6.3825    0.0000 C   0  0  0  0  0  0  0  0  0  0  0  0
   22.7893   -6.7352    0.0000 C   0  0  0  0  0  0  0  0  0  0  0  0
   14.9671   -5.0630    0.0000 Cl  0  0  0  0  0  0  0  0  0  0  0  0
   22.7520   -5.9110    0.0000 C   0  0  0  0  0  0  0  0  0  0  0  0
   16.4886   -6.5603    0.0000 N   0  0  0  0  0  0  0  0  0  0  0  0
   15.0485   -6.8561    0.0000 C   0  0  0  0  0  0  0  0  0  0  0  0
   17.7634   -5.8373    0.0000 C   0  0  0  0  0  0  0  0  0  0  0  0
   24.1647   -5.6972    0.0000 O   0  0  0  0  0  0  0  0  0  0  0  0
   19.4076   -5.7650    0.0000 C   0  0  0  0  0  0  0  0  0  0  0  0
   15.6558   -5.5172    0.0000 C   0  0  0  0  0  0  0  0  0  0  0  0
   21.9566   -5.6920    0.0000 S   0  0  0  0  0  0  0  0  0  0  0  0
   23.2732   -4.5806    0.0000 O   0  0  0  0  0  0  0  0  0  0  0  0
   22.0171   -7.0254    0.0000 N   0  0  0  0  0  0  0  0  0  0  0  0
   20.2964   -7.1502    0.0000 C   0  0  0  0  0  0  0  0  0  0  0  0
   18.2674   -7.9557    0.0000 C   0  0  0  0  0  0  0  0  0  0  0  0
   16.6492   -4.4322    0.0000 Cl  0  0  0  0  0  0  0  0  0  0  0  0
   19.4722   -7.1875    0.0000 C   0  0  2  0  0  0  0  0  0  0  0  0
   19.0916   -7.9194    0.0000 O   0  0  0  0  0  0  0  0  0  0  0  0
   18.2079   -6.5323    0.0000 N   0  0  0  0  0  0  0  0  0  0  0  0
   23.4781   -7.1892    0.0000 C   0  0  0  0  0  0  0  0  0  0  0  0
   16.4280   -5.2270    0.0000 C   0  0  0  0  0  0  0  0  0  0  0  0
   15.6932   -6.3414    0.0000 C   0  0  0  0  0  0  0  0  0  0  0  0
   23.3966   -5.3962    0.0000 C   0  0  0  0  0  0  0  0  0  0  0  0
   19.0321   -6.4948    0.0000 C   0  0  2  0  0  0  0  0  0  0  0  0
   20.2318   -5.7277    0.0000 C   0  0  0  0  0  0  0  0  0  0  0  0
   18.1431   -5.1048    0.0000 O   0  0  0  0  0  0  0  0  0  0  0  0
   16.9394   -5.8747    0.0000 C   0  0  0  0  0  0  0  0  0  0  0  0
   23.5157   -8.0134    0.0000 N   0  0  0  0  0  0  0  0  0  0  0  0
   24.3111   -8.2323    0.0000 C   0  0  0  0  0  0  0  0  0  0  0  0
   24.7651   -7.5435    0.0000 C   0  0  0  0  0  0  0  0  0  0  0  0
   24.2503   -6.8989    0.0000 N   0  0  0  0  0  0  0  0  0  0  0  0
 22 17  1  0  0  0  0
 19 16  1  0  0  0  0
 14  3  4  0  0  0  0
 26  1  1  0  0  0  0
  8 28  1  0  0  0  0
 11  4  1  0  0  0  0
 24 13  2  0  0  0  0
 22 11  4  0  0  0  0
  2 14  4  0  0  0  0
 18 25  1  0  0  0  0
 28 22  4  0  0  0  0
  5 24  1  0  0  0  0
  1  2  1  0  0  0  0
 18 19  1  6  0  0  0
 18 15  1  0  0  0  0
 23  6  4  0  0  0  0
 12  2  4  0  0  0  0
 24  9  1  0  0  0  0
 26 10  1  0  0  0  0
  8 27  2  0  0  0  0
 11 23  4  0  0  0  0
  3 21  1  0  0  0  0
  5 12  4  0  0  0  0
  6 28  4  0  0  0  0
  3  5  4  0  0  0  0
 25 10  1  0  0  0  0
 23  7  1  0  0  0  0
 25 20  1  6  0  0  0
 20  8  1  0  0  0  0
 15  1  1  0  0  0  0
 21 29  4  0  0  0  0
 21 32  4  0  0  0  0
 29 30  4  0  0  0  0
 30 31  4  0  0  0  0
 31 32  4  0  0  0  0
M  STY  2   1 DAT   2 DAT
M  SAL   1  1   6
M  SDT   1 MRV_IMPLICIT_H                                        
M  SDD   1     0.0000    0.0000    DR    ALL  0       0  
M  SED   1 IMPL_H1
M  SAL   2  1  29
M  SDT   2 MRV_IMPLICIT_H                                        
M  SDD   2     0.0000    0.0000    DR    ALL  0       0  
M  SED   2 IMPL_H1
M  END
> <From> 
www.bindingDB.org

> <BindingDB Reactant_set_id>
50271407

> <Ligand InChI>
InChI=1S/C19H20Cl2N6O4S/c1-8-11(20)12(21)13(24-8)17(28)25-9-3-6-27(7-10(9)31-2)19-26-14(15(32-19)18(29)30)16-22-4-5-23-16/h4-5,9-10,24H,3,6-7H2,1-2H3,(H,22,23)(H,25,28)(H,29,30)/t9-,10+/m1/s1

> <Ligand InChI Key>
WKUCIXRHFLRSRK-ZJUUUORDSA-N

> <BindingDB MonomerID>
50047341

> <BindingDB Ligand Name>
CHEMBL3314585

> <Target Name Assigned by Curator or DataSource>
DNA Gyrase Subunit B

> <Target Source Organism According to Curator or DataSource>
Staphylococcus aureus

> <Ki (nM)>


> <IC50 (nM)>
<10.0

> <Kd (nM)>


> <EC50 (nM)>


> <kon (M-1-s-1)>


> <koff (s-1)>


> <pH>


> <Temp C>


> <Curation/DataSource>
ChEMBL

> <Article DOI>
10.1021/jm500462x

> <PMID>
24959892

> <PubChem AID>


> <Patent Number>


> <Authors>
Basarab, GS; Hill, PJ; Garner, CE; Hull, K; Green, O; Sherer, BA; Dangel, PB; Manchester, JI; Bist, S; Hauck, S; Zhou, F; Uria-Nickelsen, M; Illingworth, R; Alm, R; Rooney, M; Eakin, AE

> <Institution>
AstraZeneca

> <Link to Ligand in BindingDB>
http://www.bindingdb.org/bind/chemsearch/marvin/MolStructure.jsp?monomerid=50047341

> <Link to Ligand-Target Pair in BindingDB>
http://www.bindingdb.org/jsp/dbsearch/PrimarySearch_ki.jsp?energyterm=kJ/mole&tag=pol&polymerid=2626&target=DNA+Gyrase+Subunit+B&column=ki&startPg=0&Increment=50&submit=Search

> <Link to Ligand-Target Pair in BindingDB>
http://www.bindingdb.org/jsp/dbsearch/PrimarySearch_ki.jsp?energyterm=kJ/mole&tag=r21&monomerid=50047341&enzyme=DNA+Gyrase+Subunit+B&column=ki&startPg=0&Increment=50&submit=Search

> <Ligand HET ID in PDB>


> <PDB ID(s) for Ligand-Target Complex>


> <PubChem CID>
25223323

> <PubChem SID>
313068770

> <ChEBI ID of Ligand>


> <ChEMBL ID of Ligand>


> <DrugBank ID of Ligand>


> <IUPHAR_GRAC ID of Ligand>


> <KEGG ID of Ligand>


> <ZINC ID of Ligand>


> <Number of Protein Chains in Target (>1 implies a multichain complex)>
1

> <BindingDB Target Chain Sequence>
MVTALSDVNNTDNYGAGQIQVLEGLEAVRKRPGMYIGSTSERGLHHLVWEIVDNSIDEALAGYANQIEVVIEKDNWIKVTDNGRGIPVDIQEKMGRPAVEVILTVLHAGGKFGGGGYKVSGGLHGVGSSVVNALSQDLEVYVHRNETIYHQAYKKGVPQFDLKEVGTTDKTGTVIRFKADGEIFTETTVYNYETLQQRIRELAFLNKGIQITLRDERDEENVREDSYHYEGGIKSYVELLNENKEPIHDEPIYIHQSKDDIEVEIAIQYNSGYATNLLTYANNIHTYEGGTHEDGFKRALTRVLNSYGLSSKIMKEEKDRLSGEDTREGMTAIISIKHGDPQFEGQTKTKLGNSEVRQVVDKLFSEHFERFLYENPQVARTVVEKGIMAARARVAAKKAREVTRRKSALDVASLPGKLADCSSKSPEECEIFLVEGDSAGGSTKSGRDSRTQAILPLRGKILNVEKARLDRILNNNEIRQMITAFGTGIGGDFDLAKARYHKIVIMTDADVDGAHIRTLLLTFFYRFMRPLIEAGYVYIAQPPLYKLTQGKQKYYVYNDRELDKLKSELNPTPKWSIARYKGLGEMNADQLWETTMNPEHRALLQVKLEDAIEADQTFEMLMGDVVENRRQFIEDNAVYANLDF

> <PDB ID(s) of Target Chain>


> <UniProt (SwissProt) Recommended Name of Target Chain>
DNA gyrase subunit B

> <UniProt (SwissProt) Entry Name of Target Chain>
GYRB_STAAU

> <UniProt (SwissProt) Primary ID of Target Chain>
P0A0K8

> <UniProt (SwissProt) Secondary ID(s) of Target Chain>
P20832

> <UniProt (SwissProt) Alternative ID(s) of Target Chain>


> <UniProt (TrEMBL) Submitted Name of Target Chain>


> <UniProt (TrEMBL) Entry Name of Target Chain>


> <UniProt (TrEMBL) Primary ID of Target Chain>


> <UniProt (TrEMBL) Secondary ID(s) of Target Chain>


> <UniProt (TrEMBL) Alternative ID(s) of Target Chain>


$$$$

  Mrv0541 03271611212D          

 33 36  0  0  0  0            999 V2000
   20.6803   -6.4200    0.0000 N   0  0  0  0  0  0  0  0  0  0  0  0
   21.5044   -6.3825    0.0000 C   0  0  0  0  0  0  0  0  0  0  0  0
   22.7893   -6.7352    0.0000 C   0  0  0  0  0  0  0  0  0  0  0  0
   14.9671   -5.0630    0.0000 Cl  0  0  0  0  0  0  0  0  0  0  0  0
   22.7520   -5.9110    0.0000 C   0  0  0  0  0  0  0  0  0  0  0  0
   16.4886   -6.5603    0.0000 N   0  0  0  0  0  0  0  0  0  0  0  0
   15.0485   -6.8561    0.0000 C   0  0  0  0  0  0  0  0  0  0  0  0
   17.7634   -5.8373    0.0000 C   0  0  0  0  0  0  0  0  0  0  0  0
   24.1647   -5.6972    0.0000 O   0  0  0  0  0  0  0  0  0  0  0  0
   19.4076   -5.7650    0.0000 C   0  0  0  0  0  0  0  0  0  0  0  0
   15.6558   -5.5172    0.0000 C   0  0  0  0  0  0  0  0  0  0  0  0
   21.9566   -5.6920    0.0000 S   0  0  0  0  0  0  0  0  0  0  0  0
   23.2732   -4.5806    0.0000 O   0  0  0  0  0  0  0  0  0  0  0  0
   22.0171   -7.0254    0.0000 N   0  0  0  0  0  0  0  0  0  0  0  0
   20.2964   -7.1502    0.0000 C   0  0  0  0  0  0  0  0  0  0  0  0
   18.2674   -7.9557    0.0000 C   0  0  0  0  0  0  0  0  0  0  0  0
   16.6492   -4.4322    0.0000 Cl  0  0  0  0  0  0  0  0  0  0  0  0
   19.4722   -7.1875    0.0000 C   0  0  2  0  0  0  0  0  0  0  0  0
   19.0916   -7.9194    0.0000 O   0  0  0  0  0  0  0  0  0  0  0  0
   18.2079   -6.5323    0.0000 N   0  0  0  0  0  0  0  0  0  0  0  0
   23.4781   -7.1892    0.0000 C   0  0  0  0  0  0  0  0  0  0  0  0
   16.4280   -5.2270    0.0000 C   0  0  0  0  0  0  0  0  0  0  0  0
   15.6932   -6.3414    0.0000 C   0  0  0  0  0  0  0  0  0  0  0  0
   23.3966   -5.3962    0.0000 C   0  0  0  0  0  0  0  0  0  0  0  0
   19.0321   -6.4948    0.0000 C   0  0  2  0  0  0  0  0  0  0  0  0
   20.2318   -5.7277    0.0000 C   0  0  0  0  0  0  0  0  0  0  0  0
   18.1431   -5.1048    0.0000 O   0  0  0  0  0  0  0  0  0  0  0  0
   16.9394   -5.8747    0.0000 C   0  0  0  0  0  0  0  0  0  0  0  0
   23.5157   -8.0134    0.0000 O   0  0  0  0  0  0  0  0  0  0  0  0
   24.3111   -8.2323    0.0000 N   0  0  0  0  0  0  0  0  0  0  0  0
   24.7651   -7.5435    0.0000 C   0  0  0  0  0  0  0  0  0  0  0  0
   24.2503   -6.8989    0.0000 N   0  0  0  0  0  0  0  0  0  0  0  0
   25.5893   -7.5059    0.0000 C   0  0  0  0  0  0  0  0  0  0  0  0
 22 17  1  0  0  0  0
 19 16  1  0  0  0  0
 14  3  4  0  0  0  0
 26  1  1  0  0  0  0
  8 28  1  0  0  0  0
 11  4  1  0  0  0  0
 24 13  2  0  0  0  0
 22 11  4  0  0  0  0
  2 14  4  0  0  0  0
 18 25  1  0  0  0  0
 28 22  4  0  0  0  0
  5 24  1  0  0  0  0
  1  2  1  0  0  0  0
 18 19  1  6  0  0  0
 18 15  1  0  0  0  0
 23  6  4  0  0  0  0
 12  2  4  0  0  0  0
 24  9  1  0  0  0  0
 26 10  1  0  0  0  0
  8 27  2  0  0  0  0
 11 23  4  0  0  0  0
  3 21  1  0  0  0  0
  5 12  4  0  0  0  0
  6 28  4  0  0  0  0
  3  5  4  0  0  0  0
 25 10  1  0  0  0  0
 23  7  1  0  0  0  0
 25 20  1  6  0  0  0
 20  8  1  0  0  0  0
 15  1  1  0  0  0  0
 21 29  4  0  0  0  0
 21 32  4  0  0  0  0
 29 30  4  0  0  0  0
 30 31  4  0  0  0  0
 31 32  4  0  0  0  0
 31 33  1  0  0  0  0
M  STY  1   1 DAT
M  SAL   1  1   6
M  SDT   1 MRV_IMPLICIT_H                                        
M  SDD   1     0.0000    0.0000    DR    ALL  0       0  
M  SED   1 IMPL_H1
M  END
> <From> 
www.bindingDB.org

> <BindingDB Reactant_set_id>
50271408

> <Ligand InChI>
InChI=1S/C19H20Cl2N6O5S/c1-7-11(20)12(21)13(22-7)16(28)24-9-4-5-27(6-10(9)31-3)19-25-14(15(33-19)18(29)30)17-23-8(2)26-32-17/h9-10,22H,4-6H2,1-3H3,(H,24,28)(H,29,30)/t9-,10+/m1/s1

> <Ligand InChI Key>
FIRYDPKYDLSKDT-ZJUUUORDSA-N

> <BindingDB MonomerID>
50047343

> <BindingDB Ligand Name>
CHEMBL3314586

> <Target Name Assigned by Curator or DataSource>
DNA Gyrase Subunit B

> <Target Source Organism According to Curator or DataSource>
Staphylococcus aureus

> <Ki (nM)>


> <IC50 (nM)>
<10.0

> <Kd (nM)>


> <EC50 (nM)>


> <kon (M-1-s-1)>


> <koff (s-1)>


> <pH>


> <Temp C>


> <Curation/DataSource>
ChEMBL

> <Article DOI>
10.1021/jm500462x

> <PMID>
24959892

> <PubChem AID>


> <Patent Number>


> <Authors>
Basarab, GS; Hill, PJ; Garner, CE; Hull, K; Green, O; Sherer, BA; Dangel, PB; Manchester, JI; Bist, S; Hauck, S; Zhou, F; Uria-Nickelsen, M; Illingworth, R; Alm, R; Rooney, M; Eakin, AE

> <Institution>
AstraZeneca

> <Link to Ligand in BindingDB>
http://www.bindingdb.org/bind/chemsearch/marvin/MolStructure.jsp?monomerid=50047343

> <Link to Ligand-Target Pair in BindingDB>
http://www.bindingdb.org/jsp/dbsearch/PrimarySearch_ki.jsp?energyterm=kJ/mole&tag=pol&polymerid=2626&target=DNA+Gyrase+Subunit+B&column=ki&startPg=0&Increment=50&submit=Search

> <Link to Ligand-Target Pair in BindingDB>
http://www.bindingdb.org/jsp/dbsearch/PrimarySearch_ki.jsp?energyterm=kJ/mole&tag=r21&monomerid=50047343&enzyme=DNA+Gyrase+Subunit+B&column=ki&startPg=0&Increment=50&submit=Search

> <Ligand HET ID in PDB>


> <PDB ID(s) for Ligand-Target Complex>


> <PubChem CID>
59864749

> <PubChem SID>
313068771

> <ChEBI ID of Ligand>


> <ChEMBL ID of Ligand>


> <DrugBank ID of Ligand>


> <IUPHAR_GRAC ID of Ligand>


> <KEGG ID of Ligand>


> <ZINC ID of Ligand>


> <Number of Protein Chains in Target (>1 implies a multichain complex)>
1

> <BindingDB Target Chain Sequence>
MVTALSDVNNTDNYGAGQIQVLEGLEAVRKRPGMYIGSTSERGLHHLVWEIVDNSIDEALAGYANQIEVVIEKDNWIKVTDNGRGIPVDIQEKMGRPAVEVILTVLHAGGKFGGGGYKVSGGLHGVGSSVVNALSQDLEVYVHRNETIYHQAYKKGVPQFDLKEVGTTDKTGTVIRFKADGEIFTETTVYNYETLQQRIRELAFLNKGIQITLRDERDEENVREDSYHYEGGIKSYVELLNENKEPIHDEPIYIHQSKDDIEVEIAIQYNSGYATNLLTYANNIHTYEGGTHEDGFKRALTRVLNSYGLSSKIMKEEKDRLSGEDTREGMTAIISIKHGDPQFEGQTKTKLGNSEVRQVVDKLFSEHFERFLYENPQVARTVVEKGIMAARARVAAKKAREVTRRKSALDVASLPGKLADCSSKSPEECEIFLVEGDSAGGSTKSGRDSRTQAILPLRGKILNVEKARLDRILNNNEIRQMITAFGTGIGGDFDLAKARYHKIVIMTDADVDGAHIRTLLLTFFYRFMRPLIEAGYVYIAQPPLYKLTQGKQKYYVYNDRELDKLKSELNPTPKWSIARYKGLGEMNADQLWETTMNPEHRALLQVKLEDAIEADQTFEMLMGDVVENRRQFIEDNAVYANLDF

> <PDB ID(s) of Target Chain>


> <UniProt (SwissProt) Recommended Name of Target Chain>
DNA gyrase subunit B

> <UniProt (SwissProt) Entry Name of Target Chain>
GYRB_STAAU

> <UniProt (SwissProt) Primary ID of Target Chain>
P0A0K8

> <UniProt (SwissProt) Secondary ID(s) of Target Chain>
P20832

> <UniProt (SwissProt) Alternative ID(s) of Target Chain>


> <UniProt (TrEMBL) Submitted Name of Target Chain>


> <UniProt (TrEMBL) Entry Name of Target Chain>


> <UniProt (TrEMBL) Primary ID of Target Chain>


> <UniProt (TrEMBL) Secondary ID(s) of Target Chain>


> <UniProt (TrEMBL) Alternative ID(s) of Target Chain>


$$$$

  Mrv0541 03271611212D          

 39 42  0  0  0  0            999 V2000
   20.6803   -6.4200    0.0000 N   0  0  0  0  0  0  0  0  0  0  0  0
   21.5044   -6.3825    0.0000 C   0  0  0  0  0  0  0  0  0  0  0  0
   22.7893   -6.7352    0.0000 C   0  0  0  0  0  0  0  0  0  0  0  0
   14.9671   -5.0630    0.0000 Cl  0  0  0  0  0  0  0  0  0  0  0  0
   22.7520   -5.9110    0.0000 C   0  0  0  0  0  0  0  0  0  0  0  0
   16.4886   -6.5603    0.0000 N   0  0  0  0  0  0  0  0  0  0  0  0
   15.0485   -6.8561    0.0000 C   0  0  0  0  0  0  0  0  0  0  0  0
   17.7634   -5.8373    0.0000 C   0  0  0  0  0  0  0  0  0  0  0  0
   24.1647   -5.6972    0.0000 O   0  0  0  0  0  0  0  0  0  0  0  0
   19.4076   -5.7650    0.0000 C   0  0  0  0  0  0  0  0  0  0  0  0
   15.6558   -5.5172    0.0000 C   0  0  0  0  0  0  0  0  0  0  0  0
   21.9566   -5.6920    0.0000 S   0  0  0  0  0  0  0  0  0  0  0  0
   23.2732   -4.5806    0.0000 O   0  0  0  0  0  0  0  0  0  0  0  0
   22.0171   -7.0254    0.0000 N   0  0  0  0  0  0  0  0  0  0  0  0
   20.2964   -7.1502    0.0000 C   0  0  0  0  0  0  0  0  0  0  0  0
   18.2674   -7.9557    0.0000 C   0  0  0  0  0  0  0  0  0  0  0  0
   24.2157   -6.8198    0.0000 N   0  0  0  0  0  0  0  0  0  0  0  0
   16.6492   -4.4322    0.0000 Cl  0  0  0  0  0  0  0  0  0  0  0  0
   19.4722   -7.1875    0.0000 C   0  0  2  0  0  0  0  0  0  0  0  0
   19.0916   -7.9194    0.0000 O   0  0  0  0  0  0  0  0  0  0  0  0
   24.1181   -8.4669    0.0000 N   0  0  0  0  0  0  0  0  0  0  0  0
   23.4293   -8.0128    0.0000 C   0  0  0  0  0  0  0  0  0  0  0  0
   18.2079   -6.5323    0.0000 N   0  0  0  0  0  0  0  0  0  0  0  0
   23.4781   -7.1892    0.0000 C   0  0  0  0  0  0  0  0  0  0  0  0
   16.4280   -5.2270    0.0000 C   0  0  0  0  0  0  0  0  0  0  0  0
   24.9046   -7.2739    0.0000 C   0  0  0  0  0  0  0  0  0  0  0  0
   15.6932   -6.3414    0.0000 C   0  0  0  0  0  0  0  0  0  0  0  0
   23.3966   -5.3962    0.0000 C   0  0  0  0  0  0  0  0  0  0  0  0
   24.8557   -8.0974    0.0000 C   0  0  0  0  0  0  0  0  0  0  0  0
   19.0321   -6.4948    0.0000 C   0  0  2  0  0  0  0  0  0  0  0  0
   20.2318   -5.7277    0.0000 C   0  0  0  0  0  0  0  0  0  0  0  0
   18.1431   -5.1048    0.0000 O   0  0  0  0  0  0  0  0  0  0  0  0
   16.9394   -5.8747    0.0000 C   0  0  0  0  0  0  0  0  0  0  0  0
   25.6423   -6.9045    0.0000 O   0  0  0  0  0  0  0  0  0  0  0  0
   26.3311   -7.3586    0.0000 C   0  0  0  0  0  0  0  0  0  0  0  0
   27.0687   -6.9891    0.0000 C   0  0  0  0  0  0  0  0  0  0  0  0
   27.7575   -7.4432    0.0000 N   0  0  0  0  0  0  0  0  0  0  0  0
   28.4952   -7.0737    0.0000 C   0  0  0  0  0  0  0  0  0  0  0  0
   27.7087   -8.2667    0.0000 C   0  0  0  0  0  0  0  0  0  0  0  0
 25 18  1  0  0  0  0
 29 26  4  0  0  0  0
 20 16  1  0  0  0  0
 24 22  4  0  0  0  0
 14  3  4  0  0  0  0
 31  1  1  0  0  0  0
 24 17  4  0  0  0  0
  8 33  1  0  0  0  0
 11  4  1  0  0  0  0
 28 13  2  0  0  0  0
 25 11  4  0  0  0  0
  2 14  4  0  0  0  0
 19 30  1  0  0  0  0
 33 25  4  0  0  0  0
  5 28  1  0  0  0  0
  1  2  1  0  0  0  0
 19 20  1  6  0  0  0
 19 15  1  0  0  0  0
 27  6  4  0  0  0  0
 12  2  4  0  0  0  0
 28  9  1  0  0  0  0
 31 10  1  0  0  0  0
  8 32  2  0  0  0  0
 11 27  4  0  0  0  0
  3 24  1  0  0  0  0
  5 12  4  0  0  0  0
 21 29  4  0  0  0  0
  6 33  4  0  0  0  0
  3  5  4  0  0  0  0
 30 10  1  0  0  0  0
 22 21  4  0  0  0  0
 27  7  1  0  0  0  0
 30 23  1  6  0  0  0
 23  8  1  0  0  0  0
 26 17  4  0  0  0  0
 15  1  1  0  0  0  0
 26 34  1  0  0  0  0
 34 35  1  0  0  0  0
 35 36  1  0  0  0  0
 36 37  1  0  0  0  0
 37 38  1  0  0  0  0
 37 39  1  0  0  0  0
M  STY  1   1 DAT
M  SAL   1  1   6
M  SDT   1 MRV_IMPLICIT_H                                        
M  SDD   1     0.0000    0.0000    DR    ALL  0       0  
M  SED   1 IMPL_H1
M  END
> <From> 
www.bindingDB.org

> <BindingDB Reactant_set_id>
50271409

> <Ligand InChI>
InChI=1S/C24H29Cl2N7O5S/c1-12-17(25)18(26)20(28-12)22(34)30-13-5-6-33(11-15(13)37-4)24-31-19(21(39-24)23(35)36)14-9-27-10-16(29-14)38-8-7-32(2)3/h9-10,13,15,28H,5-8,11H2,1-4H3,(H,30,34)(H,35,36)/t13-,15+/m1/s1

> <Ligand InChI Key>
PWKDBGBWAKLUKV-HIFRSBDPSA-N

> <BindingDB MonomerID>
50047344

> <BindingDB Ligand Name>
CHEMBL3314587

> <Target Name Assigned by Curator or DataSource>
DNA Gyrase Subunit B

> <Target Source Organism According to Curator or DataSource>
Staphylococcus aureus

> <Ki (nM)>


> <IC50 (nM)>
<10.0

> <Kd (nM)>


> <EC50 (nM)>


> <kon (M-1-s-1)>


> <koff (s-1)>


> <pH>


> <Temp C>


> <Curation/DataSource>
ChEMBL

> <Article DOI>
10.1021/jm500462x

> <PMID>
24959892

> <PubChem AID>


> <Patent Number>


> <Authors>
Basarab, GS; Hill, PJ; Garner, CE; Hull, K; Green, O; Sherer, BA; Dangel, PB; Manchester, JI; Bist, S; Hauck, S; Zhou, F; Uria-Nickelsen, M; Illingworth, R; Alm, R; Rooney, M; Eakin, AE

> <Institution>
AstraZeneca

> <Link to Ligand in BindingDB>
http://www.bindingdb.org/bind/chemsearch/marvin/MolStructure.jsp?monomerid=50047344

> <Link to Ligand-Target Pair in BindingDB>
http://www.bindingdb.org/jsp/dbsearch/PrimarySearch_ki.jsp?energyterm=kJ/mole&tag=pol&polymerid=2626&target=DNA+Gyrase+Subunit+B&column=ki&startPg=0&Increment=50&submit=Search

> <Link to Ligand-Target Pair in BindingDB>
http://www.bindingdb.org/jsp/dbsearch/PrimarySearch_ki.jsp?energyterm=kJ/mole&tag=r21&monomerid=50047344&enzyme=DNA+Gyrase+Subunit+B&column=ki&startPg=0&Increment=50&submit=Search

> <Ligand HET ID in PDB>


> <PDB ID(s) for Ligand-Target Complex>


> <PubChem CID>
118707660

> <PubChem SID>
313068772

> <ChEBI ID of Ligand>


> <ChEMBL ID of Ligand>


> <DrugBank ID of Ligand>


> <IUPHAR_GRAC ID of Ligand>


> <KEGG ID of Ligand>


> <ZINC ID of Ligand>


> <Number of Protein Chains in Target (>1 implies a multichain complex)>
1

> <BindingDB Target Chain Sequence>
MVTALSDVNNTDNYGAGQIQVLEGLEAVRKRPGMYIGSTSERGLHHLVWEIVDNSIDEALAGYANQIEVVIEKDNWIKVTDNGRGIPVDIQEKMGRPAVEVILTVLHAGGKFGGGGYKVSGGLHGVGSSVVNALSQDLEVYVHRNETIYHQAYKKGVPQFDLKEVGTTDKTGTVIRFKADGEIFTETTVYNYETLQQRIRELAFLNKGIQITLRDERDEENVREDSYHYEGGIKSYVELLNENKEPIHDEPIYIHQSKDDIEVEIAIQYNSGYATNLLTYANNIHTYEGGTHEDGFKRALTRVLNSYGLSSKIMKEEKDRLSGEDTREGMTAIISIKHGDPQFEGQTKTKLGNSEVRQVVDKLFSEHFERFLYENPQVARTVVEKGIMAARARVAAKKAREVTRRKSALDVASLPGKLADCSSKSPEECEIFLVEGDSAGGSTKSGRDSRTQAILPLRGKILNVEKARLDRILNNNEIRQMITAFGTGIGGDFDLAKARYHKIVIMTDADVDGAHIRTLLLTFFYRFMRPLIEAGYVYIAQPPLYKLTQGKQKYYVYNDRELDKLKSELNPTPKWSIARYKGLGEMNADQLWETTMNPEHRALLQVKLEDAIEADQTFEMLMGDVVENRRQFIEDNAVYANLDF

> <PDB ID(s) of Target Chain>


> <UniProt (SwissProt) Recommended Name of Target Chain>
DNA gyrase subunit B

> <UniProt (SwissProt) Entry Name of Target Chain>
GYRB_STAAU

> <UniProt (SwissProt) Primary ID of Target Chain>
P0A0K8

> <UniProt (SwissProt) Secondary ID(s) of Target Chain>
P20832

> <UniProt (SwissProt) Alternative ID(s) of Target Chain>


> <UniProt (TrEMBL) Submitted Name of Target Chain>


> <UniProt (TrEMBL) Entry Name of Target Chain>


> <UniProt (TrEMBL) Primary ID of Target Chain>


> <UniProt (TrEMBL) Secondary ID(s) of Target Chain>


> <UniProt (TrEMBL) Alternative ID(s) of Target Chain>


$$$$

  SciTegic12091614222D

 26 29  0  0  0  0            999 V2000
    2.5889    0.0182    0.0000 N   0  0
   -1.0028    1.5132    0.0000 C   0  0
    1.7138   -1.2033    0.0000 N   0  0
    1.7138    1.2033    0.0000 C   0  0
   -2.2889   -4.9699    0.0000 C   0  0
   -2.2935   -3.7700    0.0000 C   0  0
    1.1949    3.7514    0.0000 S   0  0
    1.4122    6.4162    0.0000 C   0  0
   -2.3155    0.7475    0.0000 C   0  0
   -0.9971   -3.0138    0.0000 C   0  0
    3.4400    4.6736    0.0000 N   0  0
    1.9824    5.0281    0.0000 C   0  0
    0.2917    0.7475    0.0000 C   0  0
   -2.3155   -0.7475    0.0000 C   0  0
    0.2917   -0.7475    0.0000 C   0  0
    3.5533    3.1779    0.0000 C   0  0
   -0.5144    8.1522    0.0000 C   0  0
   -0.0505    6.7258    0.0000 C   0  0
    2.4202    7.5294    0.0000 C   0  0
    1.9563    8.9558    0.0000 N   0  0
    2.1749    2.6315    0.0000 C   0  0
    0.4890    9.2672    0.0000 C   0  0
   -1.0028   -1.5132    0.0000 C   0  0
    0.0277   10.6954    0.0000 C   0  0
   -1.1457   10.9466    0.0000 O   0  0
    0.8317   11.5863    0.0000 O   0  0
  7 12  1  0
 23 10  1  0
 10  6  1  0
  2  9  2  0
  9 14  1  0
 17 18  1  0
 17 22  2  0
 18  8  2  0
  3  1  1  0
  4 13  1  0
 14 23  2  0
 12 11  2  0
 21  4  1  0
  3 15  1  0
 20 22  1  0
 23 15  1  0
  6  5  1  0
 13  2  1  0
 16 21  2  0
  8 12  1  0
  1  4  2  0
  8 19  1  0
 11 16  1  0
 19 20  2  0
 13 15  2  0
  7 21  1  0
 24 25  1  0
 24 26  2  0
 22 24  1  0
M  END
> <From> 
www.bindingDB.org

> <BindingDB Reactant_set_id>
50441791

> <Ligand InChI>
InChI=1S/C19H16N4O2S/c1-2-4-11-5-3-6-13-16(11)22-23-17(13)15-10-21-18(26-15)12-7-8-14(19(24)25)20-9-12/h3,5-10H,2,4H2,1H3,(H,22,23)(H,24,25)

> <Ligand InChI Key>
BNCUFRNKLJOHOZ-UHFFFAOYSA-N

> <BindingDB MonomerID>
50134213

> <BindingDB Ligand Name>
CHEMBL3741270

> <Target Name Assigned by Curator or DataSource>
DNA Gyrase Subunit B

> <Target Source Organism According to Curator or DataSource>
Staphylococcus aureus

> <Ki (nM)>


> <IC50 (nM)>
 10.0

> <Kd (nM)>


> <EC50 (nM)>


> <kon (M-1-s-1)>


> <koff (s-1)>


> <pH>


> <Temp C>


> <Curation/DataSource>
ChEMBL

> <Article DOI>
10.1021/acsmedchemlett.5b00266

> <PMID>
26487916

> <PubChem AID>


> <Patent Number>


> <Authors>
Zhang, J; Yang, Q; Romero, JA; Cross, J; Wang, B; Poutsiaka, KM; Epie, F; Bevan, D; Wu, Y; Moy, T; Daniel, A; Chamberlain, B; Carter, N; Shotwell, J; Arya, A; Kumar, V; Silverman, J; Nguyen, K; Metcalf, CA; Ryan, D; Lippa, B; Dolle, RE

> <Institution>
Cubist Pharmaceuticals Inc.

> <Link to Ligand in BindingDB>
http://www.bindingdb.org/bind/chemsearch/marvin/MolStructure.jsp?monomerid=50134213

> <Link to Ligand-Target Pair in BindingDB>
http://www.bindingdb.org/jsp/dbsearch/PrimarySearch_ki.jsp?energyterm=kJ/mole&tag=pol&polymerid=2626&target=DNA+Gyrase+Subunit+B&column=ki&startPg=0&Increment=50&submit=Search

> <Link to Ligand-Target Pair in BindingDB>
http://www.bindingdb.org/jsp/dbsearch/PrimarySearch_ki.jsp?energyterm=kJ/mole&tag=r21&monomerid=50134213&enzyme=DNA+Gyrase+Subunit+B&column=ki&startPg=0&Increment=50&submit=Search

> <Ligand HET ID in PDB>


> <PDB ID(s) for Ligand-Target Complex>


> <PubChem CID>
127038452

> <PubChem SID>
104024880

> <ChEBI ID of Ligand>


> <ChEMBL ID of Ligand>
CHEMBL143329

> <DrugBank ID of Ligand>


> <IUPHAR_GRAC ID of Ligand>


> <KEGG ID of Ligand>


> <ZINC ID of Ligand>
ZINC13528207

> <Number of Protein Chains in Target (>1 implies a multichain complex)>
1

> <BindingDB Target Chain Sequence>
MVTALSDVNNTDNYGAGQIQVLEGLEAVRKRPGMYIGSTSERGLHHLVWEIVDNSIDEALAGYANQIEVVIEKDNWIKVTDNGRGIPVDIQEKMGRPAVEVILTVLHAGGKFGGGGYKVSGGLHGVGSSVVNALSQDLEVYVHRNETIYHQAYKKGVPQFDLKEVGTTDKTGTVIRFKADGEIFTETTVYNYETLQQRIRELAFLNKGIQITLRDERDEENVREDSYHYEGGIKSYVELLNENKEPIHDEPIYIHQSKDDIEVEIAIQYNSGYATNLLTYANNIHTYEGGTHEDGFKRALTRVLNSYGLSSKIMKEEKDRLSGEDTREGMTAIISIKHGDPQFEGQTKTKLGNSEVRQVVDKLFSEHFERFLYENPQVARTVVEKGIMAARARVAAKKAREVTRRKSALDVASLPGKLADCSSKSPEECEIFLVEGDSAGGSTKSGRDSRTQAILPLRGKILNVEKARLDRILNNNEIRQMITAFGTGIGGDFDLAKARYHKIVIMTDADVDGAHIRTLLLTFFYRFMRPLIEAGYVYIAQPPLYKLTQGKQKYYVYNDRELDKLKSELNPTPKWSIARYKGLGEMNADQLWETTMNPEHRALLQVKLEDAIEADQTFEMLMGDVVENRRQFIEDNAVYANLDF

> <PDB ID(s) of Target Chain>


> <UniProt (SwissProt) Recommended Name of Target Chain>
DNA gyrase subunit B

> <UniProt (SwissProt) Entry Name of Target Chain>
GYRB_STAAU

> <UniProt (SwissProt) Primary ID of Target Chain>
P0A0K8

> <UniProt (SwissProt) Secondary ID(s) of Target Chain>
P20832

> <UniProt (SwissProt) Alternative ID(s) of Target Chain>


> <UniProt (TrEMBL) Submitted Name of Target Chain>


> <UniProt (TrEMBL) Entry Name of Target Chain>


> <UniProt (TrEMBL) Primary ID of Target Chain>


> <UniProt (TrEMBL) Secondary ID(s) of Target Chain>


> <UniProt (TrEMBL) Alternative ID(s) of Target Chain>


$$$$

  SciTegic09261414462D

 30 32  0  0  0  0            999 V2000
   15.8513   -2.0388    0.0000 C   0  0
   15.8501   -2.8583    0.0000 C   0  0
   16.5582   -3.2673    0.0000 C   0  0
   17.2678   -2.8579    0.0000 C   0  0
   17.2650   -2.0352    0.0000 C   0  0
   16.5564   -1.6300    0.0000 N   0  0
   15.1435   -1.6304    0.0000 N   0  0
   14.4359   -2.0392    0.0000 C   0  0
   13.7280   -1.6307    0.0000 N   0  0
   14.4360   -2.8563    0.0000 O   0  0
   13.0204   -2.0395    0.0000 C   0  0
   12.3126   -1.6311    0.0000 C   0  0
   17.9727   -3.2646    0.0000 C   0  0
   17.9726   -4.0829    0.0000 C   0  0
   18.6801   -4.4903    0.0000 N   0  0
   19.3882   -4.0805    0.0000 C   0  0
   19.3843   -3.2591    0.0000 C   0  0
   18.6762   -2.8554    0.0000 C   0  0
   20.0899   -2.8469    0.0000 C   0  0
   20.7997   -3.2519    0.0000 O   0  0
   20.0857   -2.0298    0.0000 O   0  0
   16.5566   -4.0835    0.0000 C   0  0
   15.8954   -4.5637    0.0000 N   0  0
   16.1477   -5.3409    0.0000 C   0  0
   16.9650   -5.3411    0.0000 C   0  0
   17.2176   -4.5640    0.0000 S   0  0
   15.6673   -6.0019    0.0000 C   0  0
   14.8546   -5.9163    0.0000 F   0  0
   15.9995   -6.7486    0.0000 F   0  0
   15.2542   -6.7067    0.0000 F   0  0
  1  2  2  0
  2  3  1  0
  3  4  2  0
  4  5  1  0
  5  6  2  0
  6  1  1  0
  1  7  1  0
  7  8  1  0
  8  9  1  0
  8 10  2  0
  9 11  1  0
 11 12  1  0
 13 14  2  0
 14 15  1  0
 15 16  2  0
 16 17  1  0
 17 18  2  0
 18 13  1  0
  4 13  1  0
 17 19  1  0
 19 20  1  0
 19 21  2  0
 22 23  2  0
 23 24  1  0
 24 25  2  0
 25 26  1  0
 26 22  1  0
  3 22  1  0
 24 27  1  0
 27 28  1  0
 27 29  1  0
 27 30  1  0
M  END
> <From> 
www.bindingDB.org

> <BindingDB Reactant_set_id>
50083269

> <Ligand InChI>
InChI=1S/C18H14F3N5O3S/c1-2-23-17(29)26-14-4-11(15-25-13(8-30-15)18(19,20)21)12(7-24-14)9-3-10(16(27)28)6-22-5-9/h3-8H,2H2,1H3,(H,27,28)(H2,23,24,26,29)

> <Ligand InChI Key>
GLNFAHNABSNEAM-UHFFFAOYSA-N

> <BindingDB MonomerID>
50006565

> <BindingDB Ligand Name>
CHEMBL3235085

> <Target Name Assigned by Curator or DataSource>
DNA Gyrase Subunit B

> <Target Source Organism According to Curator or DataSource>
Staphylococcus aureus

> <Ki (nM)>


> <IC50 (nM)>
<10.0

> <Kd (nM)>


> <EC50 (nM)>


> <kon (M-1-s-1)>


> <koff (s-1)>


> <pH>


> <Temp C>


> <Curation/DataSource>
ChEMBL

> <Article DOI>
10.1021/jm401208b

> <PMID>
24098982

> <PubChem AID>


> <Patent Number>


> <Authors>
Basarab, GS; Basarab, GS; Boriack-Sjodin, PA; Boriack-Sjodin, PA; Illingworth, R; Illingworth, R; Manchester, JI; Manchester, JI; Dangel, B; Dangel, B; Sriram, S; Sriram, S

> <Institution>
AstraZeneca R&amp;D Boston

> <Link to Ligand in BindingDB>
http://www.bindingdb.org/bind/chemsearch/marvin/MolStructure.jsp?monomerid=50006565

> <Link to Ligand-Target Pair in BindingDB>
http://www.bindingdb.org/jsp/dbsearch/PrimarySearch_ki.jsp?energyterm=kJ/mole&tag=pol&polymerid=2626&target=DNA+Gyrase+Subunit+B&column=ki&startPg=0&Increment=50&submit=Search

> <Link to Ligand-Target Pair in BindingDB>
http://www.bindingdb.org/jsp/dbsearch/PrimarySearch_ki.jsp?energyterm=kJ/mole&tag=r21&monomerid=50006565&enzyme=DNA+Gyrase+Subunit+B&column=ki&startPg=0&Increment=50&submit=Search

> <Ligand HET ID in PDB>
1YM

> <PDB ID(s) for Ligand-Target Complex>
4LP0

> <PubChem CID>
59208355

> <PubChem SID>
103919966

> <ChEBI ID of Ligand>


> <ChEMBL ID of Ligand>
CHEMBL3235085

> <DrugBank ID of Ligand>


> <IUPHAR_GRAC ID of Ligand>


> <KEGG ID of Ligand>


> <ZINC ID of Ligand>
ZINC26378934

> <Number of Protein Chains in Target (>1 implies a multichain complex)>
1

> <BindingDB Target Chain Sequence>
MVTALSDVNNTDNYGAGQIQVLEGLEAVRKRPGMYIGSTSERGLHHLVWEIVDNSIDEALAGYANQIEVVIEKDNWIKVTDNGRGIPVDIQEKMGRPAVEVILTVLHAGGKFGGGGYKVSGGLHGVGSSVVNALSQDLEVYVHRNETIYHQAYKKGVPQFDLKEVGTTDKTGTVIRFKADGEIFTETTVYNYETLQQRIRELAFLNKGIQITLRDERDEENVREDSYHYEGGIKSYVELLNENKEPIHDEPIYIHQSKDDIEVEIAIQYNSGYATNLLTYANNIHTYEGGTHEDGFKRALTRVLNSYGLSSKIMKEEKDRLSGEDTREGMTAIISIKHGDPQFEGQTKTKLGNSEVRQVVDKLFSEHFERFLYENPQVARTVVEKGIMAARARVAAKKAREVTRRKSALDVASLPGKLADCSSKSPEECEIFLVEGDSAGGSTKSGRDSRTQAILPLRGKILNVEKARLDRILNNNEIRQMITAFGTGIGGDFDLAKARYHKIVIMTDADVDGAHIRTLLLTFFYRFMRPLIEAGYVYIAQPPLYKLTQGKQKYYVYNDRELDKLKSELNPTPKWSIARYKGLGEMNADQLWETTMNPEHRALLQVKLEDAIEADQTFEMLMGDVVENRRQFIEDNAVYANLDF

> <PDB ID(s) of Target Chain>


> <UniProt (SwissProt) Recommended Name of Target Chain>
DNA gyrase subunit B

> <UniProt (SwissProt) Entry Name of Target Chain>
GYRB_STAAU

> <UniProt (SwissProt) Primary ID of Target Chain>
P0A0K8

> <UniProt (SwissProt) Secondary ID(s) of Target Chain>
P20832

> <UniProt (SwissProt) Alternative ID(s) of Target Chain>


> <UniProt (TrEMBL) Submitted Name of Target Chain>


> <UniProt (TrEMBL) Entry Name of Target Chain>


> <UniProt (TrEMBL) Primary ID of Target Chain>


> <UniProt (TrEMBL) Secondary ID(s) of Target Chain>


> <UniProt (TrEMBL) Alternative ID(s) of Target Chain>


$$$$

  SciTegic09261414462D

 30 32  0  0  0  0            999 V2000
   28.1545   -2.2039    0.0000 C   0  0
   28.1534   -3.0234    0.0000 C   0  0
   28.8614   -3.4324    0.0000 C   0  0
   29.5711   -3.0230    0.0000 C   0  0
   29.5683   -2.2003    0.0000 C   0  0
   28.8596   -1.7950    0.0000 N   0  0
   27.4467   -1.7955    0.0000 N   0  0
   26.7391   -2.2042    0.0000 C   0  0
   26.0313   -1.7958    0.0000 N   0  0
   26.7393   -3.0214    0.0000 O   0  0
   25.3237   -2.2046    0.0000 C   0  0
   24.6159   -1.7962    0.0000 C   0  0
   30.2759   -3.4297    0.0000 C   0  0
   30.2759   -4.2480    0.0000 C   0  0
   30.9834   -4.6554    0.0000 N   0  0
   31.6914   -4.2456    0.0000 C   0  0
   31.6875   -3.4242    0.0000 C   0  0
   30.9794   -3.0205    0.0000 C   0  0
   32.3931   -3.0120    0.0000 C   0  0
   33.1029   -3.4170    0.0000 N   0  0
   32.3890   -2.1948    0.0000 O   0  0
   28.8599   -4.2486    0.0000 C   0  0
   28.1987   -4.7287    0.0000 N   0  0
   28.4510   -5.5060    0.0000 C   0  0
   29.2683   -5.5062    0.0000 C   0  0
   29.5208   -4.7291    0.0000 S   0  0
   27.9705   -6.1670    0.0000 C   0  0
   27.1578   -6.0814    0.0000 F   0  0
   28.3027   -6.9136    0.0000 F   0  0
   27.5575   -6.8718    0.0000 F   0  0
  1  2  2  0
  2  3  1  0
  3  4  2  0
  4  5  1  0
  5  6  2  0
  6  1  1  0
  1  7  1  0
  7  8  1  0
  8  9  1  0
  8 10  2  0
  9 11  1  0
 11 12  1  0
 13 14  2  0
 14 15  1  0
 15 16  2  0
 16 17  1  0
 17 18  2  0
 18 13  1  0
  4 13  1  0
 17 19  1  0
 19 20  1  0
 19 21  2  0
 22 23  2  0
 23 24  1  0
 24 25  2  0
 25 26  1  0
 26 22  1  0
  3 22  1  0
 24 27  1  0
 27 28  1  0
 27 29  1  0
 27 30  1  0
M  END
> <From> 
www.bindingDB.org

> <BindingDB Reactant_set_id>
50083270

> <Ligand InChI>
InChI=1S/C18H15F3N6O2S/c1-2-24-17(29)27-14-4-11(16-26-13(8-30-16)18(19,20)21)12(7-25-14)9-3-10(15(22)28)6-23-5-9/h3-8H,2H2,1H3,(H2,22,28)(H2,24,25,27,29)

> <Ligand InChI Key>
YDRGYAKNMSAVKT-UHFFFAOYSA-N

> <BindingDB MonomerID>
50006566

> <BindingDB Ligand Name>
CHEMBL3235086

> <Target Name Assigned by Curator or DataSource>
DNA Gyrase Subunit B

> <Target Source Organism According to Curator or DataSource>
Staphylococcus aureus

> <Ki (nM)>


> <IC50 (nM)>
<10.0

> <Kd (nM)>


> <EC50 (nM)>


> <kon (M-1-s-1)>


> <koff (s-1)>


> <pH>


> <Temp C>


> <Curation/DataSource>
ChEMBL

> <Article DOI>
10.1021/jm401208b

> <PMID>
24098982

> <PubChem AID>


> <Patent Number>


> <Authors>
Basarab, GS; Basarab, GS; Boriack-Sjodin, PA; Boriack-Sjodin, PA; Illingworth, R; Illingworth, R; Manchester, JI; Manchester, JI; Dangel, B; Dangel, B; Sriram, S; Sriram, S

> <Institution>
AstraZeneca R&amp;D Boston

> <Link to Ligand in BindingDB>
http://www.bindingdb.org/bind/chemsearch/marvin/MolStructure.jsp?monomerid=50006566

> <Link to Ligand-Target Pair in BindingDB>
http://www.bindingdb.org/jsp/dbsearch/PrimarySearch_ki.jsp?energyterm=kJ/mole&tag=pol&polymerid=2626&target=DNA+Gyrase+Subunit+B&column=ki&startPg=0&Increment=50&submit=Search

> <Link to Ligand-Target Pair in BindingDB>
http://www.bindingdb.org/jsp/dbsearch/PrimarySearch_ki.jsp?energyterm=kJ/mole&tag=r21&monomerid=50006566&enzyme=DNA+Gyrase+Subunit+B&column=ki&startPg=0&Increment=50&submit=Search

> <Ligand HET ID in PDB>


> <PDB ID(s) for Ligand-Target Complex>


> <PubChem CID>
59208340

> <PubChem SID>
103919967

> <ChEBI ID of Ligand>


> <ChEMBL ID of Ligand>
CHEMBL3235086

> <DrugBank ID of Ligand>


> <IUPHAR_GRAC ID of Ligand>


> <KEGG ID of Ligand>


> <ZINC ID of Ligand>
ZINC26377995

> <Number of Protein Chains in Target (>1 implies a multichain complex)>
1

> <BindingDB Target Chain Sequence>
MVTALSDVNNTDNYGAGQIQVLEGLEAVRKRPGMYIGSTSERGLHHLVWEIVDNSIDEALAGYANQIEVVIEKDNWIKVTDNGRGIPVDIQEKMGRPAVEVILTVLHAGGKFGGGGYKVSGGLHGVGSSVVNALSQDLEVYVHRNETIYHQAYKKGVPQFDLKEVGTTDKTGTVIRFKADGEIFTETTVYNYETLQQRIRELAFLNKGIQITLRDERDEENVREDSYHYEGGIKSYVELLNENKEPIHDEPIYIHQSKDDIEVEIAIQYNSGYATNLLTYANNIHTYEGGTHEDGFKRALTRVLNSYGLSSKIMKEEKDRLSGEDTREGMTAIISIKHGDPQFEGQTKTKLGNSEVRQVVDKLFSEHFERFLYENPQVARTVVEKGIMAARARVAAKKAREVTRRKSALDVASLPGKLADCSSKSPEECEIFLVEGDSAGGSTKSGRDSRTQAILPLRGKILNVEKARLDRILNNNEIRQMITAFGTGIGGDFDLAKARYHKIVIMTDADVDGAHIRTLLLTFFYRFMRPLIEAGYVYIAQPPLYKLTQGKQKYYVYNDRELDKLKSELNPTPKWSIARYKGLGEMNADQLWETTMNPEHRALLQVKLEDAIEADQTFEMLMGDVVENRRQFIEDNAVYANLDF

> <PDB ID(s) of Target Chain>


> <UniProt (SwissProt) Recommended Name of Target Chain>
DNA gyrase subunit B

> <UniProt (SwissProt) Entry Name of Target Chain>
GYRB_STAAU

> <UniProt (SwissProt) Primary ID of Target Chain>
P0A0K8

> <UniProt (SwissProt) Secondary ID(s) of Target Chain>
P20832

> <UniProt (SwissProt) Alternative ID(s) of Target Chain>


> <UniProt (TrEMBL) Submitted Name of Target Chain>


> <UniProt (TrEMBL) Entry Name of Target Chain>


> <UniProt (TrEMBL) Primary ID of Target Chain>


> <UniProt (TrEMBL) Secondary ID(s) of Target Chain>


> <UniProt (TrEMBL) Alternative ID(s) of Target Chain>


$$$$

  SciTegic09261414462D

 29 31  0  0  0  0            999 V2000
    5.6983   -7.7798    0.0000 C   0  0
    5.6971   -8.5993    0.0000 C   0  0
    6.4052   -9.0083    0.0000 C   0  0
    7.1148   -8.5989    0.0000 C   0  0
    7.1120   -7.7762    0.0000 C   0  0
    6.4034   -7.3709    0.0000 N   0  0
    4.9905   -7.3714    0.0000 N   0  0
    4.2829   -7.7801    0.0000 C   0  0
    3.5751   -7.3717    0.0000 N   0  0
    4.2831   -8.5973    0.0000 O   0  0
    2.8675   -7.7805    0.0000 C   0  0
    2.1596   -7.3720    0.0000 C   0  0
    6.4036   -9.8244    0.0000 C   0  0
    5.7424  -10.3046    0.0000 N   0  0
    5.9948  -11.0819    0.0000 C   0  0
    6.8120  -11.0821    0.0000 C   0  0
    7.0646  -10.3050    0.0000 S   0  0
    5.5143  -11.7429    0.0000 C   0  0
    4.7016  -11.6573    0.0000 F   0  0
    5.8465  -12.4895    0.0000 F   0  0
    4.9320  -12.3198    0.0000 F   0  0
    7.8237   -9.0039    0.0000 C   0  0
    7.9104   -9.8165    0.0000 N   0  0
    8.7100   -9.9851    0.0000 C   0  0
    9.1175   -9.2767    0.0000 C   0  0
    8.5697   -8.6704    0.0000 S   0  0
    9.9301   -9.1900    0.0000 C   0  0
   10.4115   -9.8503    0.0000 O   0  0
   10.2613   -8.4429    0.0000 O   0  0
  1  2  2  0
  2  3  1  0
  3  4  2  0
  4  5  1  0
  5  6  2  0
  6  1  1  0
  1  7  1  0
  7  8  1  0
  8  9  1  0
  8 10  2  0
  9 11  1  0
 11 12  1  0
 13 14  2  0
 14 15  1  0
 15 16  2  0
 16 17  1  0
 17 13  1  0
  3 13  1  0
 15 18  1  0
 18 19  1  0
 18 20  1  0
 18 21  1  0
 22 23  2  0
 23 24  1  0
 24 25  2  0
 25 26  1  0
 26 22  1  0
  4 22  1  0
 25 27  1  0
 27 28  1  0
 27 29  2  0
M  END
> <From> 
www.bindingDB.org

> <BindingDB Reactant_set_id>
50083271

> <Ligand InChI>
InChI=1S/C16H12F3N5O3S2/c1-2-20-15(27)24-11-3-7(13-23-10(6-28-13)16(17,18)19)8(4-21-11)12-22-5-9(29-12)14(25)26/h3-6H,2H2,1H3,(H,25,26)(H2,20,21,24,27)

> <Ligand InChI Key>
WFCZIFRCTPBZSY-UHFFFAOYSA-N

> <BindingDB MonomerID>
50006567

> <BindingDB Ligand Name>
CHEMBL3235087

> <Target Name Assigned by Curator or DataSource>
DNA Gyrase Subunit B

> <Target Source Organism According to Curator or DataSource>
Staphylococcus aureus

> <Ki (nM)>


> <IC50 (nM)>
<10.0

> <Kd (nM)>


> <EC50 (nM)>


> <kon (M-1-s-1)>


> <koff (s-1)>


> <pH>


> <Temp C>


> <Curation/DataSource>
ChEMBL

> <Article DOI>
10.1021/jm401208b

> <PMID>
24098982

> <PubChem AID>


> <Patent Number>


> <Authors>
Basarab, GS; Basarab, GS; Boriack-Sjodin, PA; Boriack-Sjodin, PA; Illingworth, R; Illingworth, R; Manchester, JI; Manchester, JI; Dangel, B; Dangel, B; Sriram, S; Sriram, S

> <Institution>
AstraZeneca R&amp;D Boston

> <Link to Ligand in BindingDB>
http://www.bindingdb.org/bind/chemsearch/marvin/MolStructure.jsp?monomerid=50006567

> <Link to Ligand-Target Pair in BindingDB>
http://www.bindingdb.org/jsp/dbsearch/PrimarySearch_ki.jsp?energyterm=kJ/mole&tag=pol&polymerid=2626&target=DNA+Gyrase+Subunit+B&column=ki&startPg=0&Increment=50&submit=Search

> <Link to Ligand-Target Pair in BindingDB>
http://www.bindingdb.org/jsp/dbsearch/PrimarySearch_ki.jsp?energyterm=kJ/mole&tag=r21&monomerid=50006567&enzyme=DNA+Gyrase+Subunit+B&column=ki&startPg=0&Increment=50&submit=Search

> <Ligand HET ID in PDB>


> <PDB ID(s) for Ligand-Target Complex>


> <PubChem CID>
59208319

> <PubChem SID>
103919968

> <ChEBI ID of Ligand>


> <ChEMBL ID of Ligand>
CHEMBL3235087

> <DrugBank ID of Ligand>


> <IUPHAR_GRAC ID of Ligand>


> <KEGG ID of Ligand>


> <ZINC ID of Ligand>
ZINC26376294

> <Number of Protein Chains in Target (>1 implies a multichain complex)>
1

> <BindingDB Target Chain Sequence>
MVTALSDVNNTDNYGAGQIQVLEGLEAVRKRPGMYIGSTSERGLHHLVWEIVDNSIDEALAGYANQIEVVIEKDNWIKVTDNGRGIPVDIQEKMGRPAVEVILTVLHAGGKFGGGGYKVSGGLHGVGSSVVNALSQDLEVYVHRNETIYHQAYKKGVPQFDLKEVGTTDKTGTVIRFKADGEIFTETTVYNYETLQQRIRELAFLNKGIQITLRDERDEENVREDSYHYEGGIKSYVELLNENKEPIHDEPIYIHQSKDDIEVEIAIQYNSGYATNLLTYANNIHTYEGGTHEDGFKRALTRVLNSYGLSSKIMKEEKDRLSGEDTREGMTAIISIKHGDPQFEGQTKTKLGNSEVRQVVDKLFSEHFERFLYENPQVARTVVEKGIMAARARVAAKKAREVTRRKSALDVASLPGKLADCSSKSPEECEIFLVEGDSAGGSTKSGRDSRTQAILPLRGKILNVEKARLDRILNNNEIRQMITAFGTGIGGDFDLAKARYHKIVIMTDADVDGAHIRTLLLTFFYRFMRPLIEAGYVYIAQPPLYKLTQGKQKYYVYNDRELDKLKSELNPTPKWSIARYKGLGEMNADQLWETTMNPEHRALLQVKLEDAIEADQTFEMLMGDVVENRRQFIEDNAVYANLDF

> <PDB ID(s) of Target Chain>


> <UniProt (SwissProt) Recommended Name of Target Chain>
DNA gyrase subunit B

> <UniProt (SwissProt) Entry Name of Target Chain>
GYRB_STAAU

> <UniProt (SwissProt) Primary ID of Target Chain>
P0A0K8

> <UniProt (SwissProt) Secondary ID(s) of Target Chain>
P20832

> <UniProt (SwissProt) Alternative ID(s) of Target Chain>


> <UniProt (TrEMBL) Submitted Name of Target Chain>


> <UniProt (TrEMBL) Entry Name of Target Chain>


> <UniProt (TrEMBL) Primary ID of Target Chain>


> <UniProt (TrEMBL) Secondary ID(s) of Target Chain>


> <UniProt (TrEMBL) Alternative ID(s) of Target Chain>


$$$$

  SciTegic09261414462D

 33 36  0  0  0  0            999 V2000
   17.9850   -8.2503    0.0000 C   0  0
   17.9839   -9.0698    0.0000 C   0  0
   18.6919   -9.4788    0.0000 C   0  0
   19.4016   -9.0694    0.0000 C   0  0
   19.3988   -8.2467    0.0000 C   0  0
   18.6902   -7.8414    0.0000 N   0  0
   17.2772   -7.8419    0.0000 N   0  0
   16.5696   -8.2506    0.0000 C   0  0
   15.8618   -7.8422    0.0000 N   0  0
   16.5698   -9.0678    0.0000 O   0  0
   15.1542   -8.2510    0.0000 C   0  0
   14.4464   -7.8425    0.0000 C   0  0
   18.6904  -10.2949    0.0000 C   0  0
   18.0292  -10.7751    0.0000 N   0  0
   18.2815  -11.5524    0.0000 C   0  0
   19.0988  -11.5526    0.0000 C   0  0
   19.3514  -10.7755    0.0000 S   0  0
   17.8010  -12.2134    0.0000 C   0  0
   16.9883  -12.1278    0.0000 F   0  0
   18.1332  -12.9600    0.0000 F   0  0
   17.2188  -12.7903    0.0000 F   0  0
   20.1105   -9.4744    0.0000 C   0  0
   20.1972  -10.2870    0.0000 N   0  0
   20.8565   -9.1409    0.0000 S   0  0
   21.4043   -9.7472    0.0000 C   0  0
   20.9984  -10.4529    0.0000 C   0  0
   21.4064  -11.1552    0.0000 C   0  0
   22.2202  -11.1530    0.0000 C   0  0
   22.6243  -10.4427    0.0000 C   0  0
   22.2139   -9.7433    0.0000 C   0  0
   22.6183   -9.0332    0.0000 C   0  0
   23.4355   -9.0284    0.0000 O   0  0
   22.2056   -8.3280    0.0000 O   0  0
  1  2  2  0
  2  3  1  0
  3  4  2  0
  4  5  1  0
  5  6  2  0
  6  1  1  0
  1  7  1  0
  7  8  1  0
  8  9  1  0
  8 10  2  0
  9 11  1  0
 11 12  1  0
 13 14  2  0
 14 15  1  0
 15 16  2  0
 16 17  1  0
 17 13  1  0
  3 13  1  0
 15 18  1  0
 18 19  1  0
 18 20  1  0
 18 21  1  0
 22 23  2  0
 23 26  1  0
 25 24  1  0
 24 22  1  0
  4 22  1  0
 25 26  2  0
 26 27  1  0
 27 28  2  0
 28 29  1  0
 29 30  2  0
 30 25  1  0
 30 31  1  0
 31 32  1  0
 31 33  2  0
M  END
> <From> 
www.bindingDB.org

> <BindingDB Reactant_set_id>
50083272

> <Ligand InChI>
InChI=1S/C20H14F3N5O3S2/c1-2-24-19(31)28-14-6-10(16-27-13(8-32-16)20(21,22)23)11(7-25-14)17-26-12-5-3-4-9(18(29)30)15(12)33-17/h3-8H,2H2,1H3,(H,29,30)(H2,24,25,28,31)

> <Ligand InChI Key>
BREJFTBEJPKUOJ-UHFFFAOYSA-N

> <BindingDB MonomerID>
50006568

> <BindingDB Ligand Name>
CHEMBL3235088

> <Target Name Assigned by Curator or DataSource>
DNA Gyrase Subunit B

> <Target Source Organism According to Curator or DataSource>
Staphylococcus aureus

> <Ki (nM)>


> <IC50 (nM)>
<10.0

> <Kd (nM)>


> <EC50 (nM)>


> <kon (M-1-s-1)>


> <koff (s-1)>


> <pH>


> <Temp C>


> <Curation/DataSource>
ChEMBL

> <Article DOI>
10.1021/jm401208b

> <PMID>
24098982

> <PubChem AID>


> <Patent Number>


> <Authors>
Basarab, GS; Basarab, GS; Boriack-Sjodin, PA; Boriack-Sjodin, PA; Illingworth, R; Illingworth, R; Manchester, JI; Manchester, JI; Dangel, B; Dangel, B; Sriram, S; Sriram, S

> <Institution>
AstraZeneca R&amp;D Boston

> <Link to Ligand in BindingDB>
http://www.bindingdb.org/bind/chemsearch/marvin/MolStructure.jsp?monomerid=50006568

> <Link to Ligand-Target Pair in BindingDB>
http://www.bindingdb.org/jsp/dbsearch/PrimarySearch_ki.jsp?energyterm=kJ/mole&tag=pol&polymerid=2626&target=DNA+Gyrase+Subunit+B&column=ki&startPg=0&Increment=50&submit=Search

> <Link to Ligand-Target Pair in BindingDB>
http://www.bindingdb.org/jsp/dbsearch/PrimarySearch_ki.jsp?energyterm=kJ/mole&tag=r21&monomerid=50006568&enzyme=DNA+Gyrase+Subunit+B&column=ki&startPg=0&Increment=50&submit=Search

> <Ligand HET ID in PDB>


> <PDB ID(s) for Ligand-Target Complex>


> <PubChem CID>
72712260

> <PubChem SID>
103919969

> <ChEBI ID of Ligand>


> <ChEMBL ID of Ligand>
CHEMBL3235088

> <DrugBank ID of Ligand>


> <IUPHAR_GRAC ID of Ligand>


> <KEGG ID of Ligand>


> <ZINC ID of Ligand>
ZINC26377964

> <Number of Protein Chains in Target (>1 implies a multichain complex)>
1

> <BindingDB Target Chain Sequence>
MVTALSDVNNTDNYGAGQIQVLEGLEAVRKRPGMYIGSTSERGLHHLVWEIVDNSIDEALAGYANQIEVVIEKDNWIKVTDNGRGIPVDIQEKMGRPAVEVILTVLHAGGKFGGGGYKVSGGLHGVGSSVVNALSQDLEVYVHRNETIYHQAYKKGVPQFDLKEVGTTDKTGTVIRFKADGEIFTETTVYNYETLQQRIRELAFLNKGIQITLRDERDEENVREDSYHYEGGIKSYVELLNENKEPIHDEPIYIHQSKDDIEVEIAIQYNSGYATNLLTYANNIHTYEGGTHEDGFKRALTRVLNSYGLSSKIMKEEKDRLSGEDTREGMTAIISIKHGDPQFEGQTKTKLGNSEVRQVVDKLFSEHFERFLYENPQVARTVVEKGIMAARARVAAKKAREVTRRKSALDVASLPGKLADCSSKSPEECEIFLVEGDSAGGSTKSGRDSRTQAILPLRGKILNVEKARLDRILNNNEIRQMITAFGTGIGGDFDLAKARYHKIVIMTDADVDGAHIRTLLLTFFYRFMRPLIEAGYVYIAQPPLYKLTQGKQKYYVYNDRELDKLKSELNPTPKWSIARYKGLGEMNADQLWETTMNPEHRALLQVKLEDAIEADQTFEMLMGDVVENRRQFIEDNAVYANLDF

> <PDB ID(s) of Target Chain>


> <UniProt (SwissProt) Recommended Name of Target Chain>
DNA gyrase subunit B

> <UniProt (SwissProt) Entry Name of Target Chain>
GYRB_STAAU

> <UniProt (SwissProt) Primary ID of Target Chain>
P0A0K8

> <UniProt (SwissProt) Secondary ID(s) of Target Chain>
P20832

> <UniProt (SwissProt) Alternative ID(s) of Target Chain>


> <UniProt (TrEMBL) Submitted Name of Target Chain>


> <UniProt (TrEMBL) Entry Name of Target Chain>


> <UniProt (TrEMBL) Primary ID of Target Chain>


> <UniProt (TrEMBL) Secondary ID(s) of Target Chain>


> <UniProt (TrEMBL) Alternative ID(s) of Target Chain>


$$$$

  SciTegic09261414462D

 33 36  0  0  0  0            999 V2000
    5.0668  -14.3792    0.0000 C   0  0
    5.0657  -15.1988    0.0000 C   0  0
    5.7737  -15.6077    0.0000 C   0  0
    6.4834  -15.1983    0.0000 C   0  0
    6.4806  -14.3756    0.0000 C   0  0
    5.7719  -13.9704    0.0000 N   0  0
    4.3590  -13.9708    0.0000 N   0  0
    3.6514  -14.3796    0.0000 C   0  0
    2.9436  -13.9711    0.0000 N   0  0
    3.6516  -15.1968    0.0000 O   0  0
    2.2360  -14.3799    0.0000 C   0  0
    1.5282  -13.9715    0.0000 C   0  0
    7.1882  -15.6050    0.0000 C   0  0
    7.1882  -16.4233    0.0000 C   0  0
    7.8957  -16.8307    0.0000 N   0  0
    8.6037  -16.4210    0.0000 C   0  0
    8.5998  -15.5995    0.0000 C   0  0
    7.8917  -15.1958    0.0000 C   0  0
    9.2748  -15.1385    0.0000 C   0  0
    5.7785  -16.4249    0.0000 C   0  0
    5.1173  -16.9051    0.0000 S   0  0
    5.3696  -17.6823    0.0000 C   0  0
    6.1869  -17.6825    0.0000 C   0  0
    6.4395  -16.9054    0.0000 N   0  0
    6.6671  -18.3437    0.0000 C   0  0
    6.3346  -19.0902    0.0000 F   0  0
    7.4798  -18.2585    0.0000 F   0  0
    7.2433  -18.9192    0.0000 F   0  0
   10.0428  -15.4092    0.0000 O   0  0
   10.5422  -14.7623    0.0000 C   0  0
   10.0813  -14.0874    0.0000 N   0  0
    9.2971  -14.3173    0.0000 N   0  0
   11.3590  -14.7861    0.0000 O   0  0
  1  2  2  0
  2  3  1  0
  3  4  2  0
  4  5  1  0
  5  6  2  0
  6  1  1  0
  1  7  1  0
  7  8  1  0
  8  9  1  0
  8 10  2  0
  9 11  1  0
 11 12  1  0
 13 14  2  0
 14 15  1  0
 15 16  2  0
 16 17  1  0
 17 18  2  0
 18 13  1  0
  4 13  1  0
 17 19  1  0
 20 21  1  0
 21 22  1  0
 22 23  2  0
 23 24  1  0
 24 20  2  0
  3 20  1  0
 23 25  1  0
 25 26  1  0
 25 27  1  0
 25 28  1  0
 19 29  1  0
 29 30  1  0
 30 31  1  0
 31 32  1  0
 32 19  2  0
 30 33  2  0
M  END
> <From> 
www.bindingDB.org

> <BindingDB Reactant_set_id>
50083273

> <Ligand InChI>
InChI=1S/C19H14F3N7O3S/c1-2-24-17(30)27-14-4-11(16-26-13(8-33-16)19(20,21)22)12(7-25-14)9-3-10(6-23-5-9)15-28-29-18(31)32-15/h3-8H,2H2,1H3,(H,29,31)(H2,24,25,27,30)

> <Ligand InChI Key>
VIHKUWHFUWMXKJ-UHFFFAOYSA-N

> <BindingDB MonomerID>
50006569

> <BindingDB Ligand Name>
CHEMBL3235089

> <Target Name Assigned by Curator or DataSource>
DNA Gyrase Subunit B

> <Target Source Organism According to Curator or DataSource>
Staphylococcus aureus

> <Ki (nM)>


> <IC50 (nM)>
<10.0

> <Kd (nM)>


> <EC50 (nM)>


> <kon (M-1-s-1)>


> <koff (s-1)>


> <pH>


> <Temp C>


> <Curation/DataSource>
ChEMBL

> <Article DOI>
10.1021/jm401208b

> <PMID>
24098982

> <PubChem AID>


> <Patent Number>


> <Authors>
Basarab, GS; Basarab, GS; Boriack-Sjodin, PA; Boriack-Sjodin, PA; Illingworth, R; Illingworth, R; Manchester, JI; Manchester, JI; Dangel, B; Dangel, B; Sriram, S; Sriram, S

> <Institution>
AstraZeneca R&amp;D Boston

> <Link to Ligand in BindingDB>
http://www.bindingdb.org/bind/chemsearch/marvin/MolStructure.jsp?monomerid=50006569

> <Link to Ligand-Target Pair in BindingDB>
http://www.bindingdb.org/jsp/dbsearch/PrimarySearch_ki.jsp?energyterm=kJ/mole&tag=pol&polymerid=2626&target=DNA+Gyrase+Subunit+B&column=ki&startPg=0&Increment=50&submit=Search

> <Link to Ligand-Target Pair in BindingDB>
http://www.bindingdb.org/jsp/dbsearch/PrimarySearch_ki.jsp?energyterm=kJ/mole&tag=r21&monomerid=50006569&enzyme=DNA+Gyrase+Subunit+B&column=ki&startPg=0&Increment=50&submit=Search

> <Ligand HET ID in PDB>
1YP

> <PDB ID(s) for Ligand-Target Complex>
4LPB

> <PubChem CID>
44205637

> <PubChem SID>
103919970

> <ChEBI ID of Ligand>


> <ChEMBL ID of Ligand>
CHEMBL3235089

> <DrugBank ID of Ligand>


> <IUPHAR_GRAC ID of Ligand>


> <KEGG ID of Ligand>


> <ZINC ID of Ligand>
ZINC26378024

> <Number of Protein Chains in Target (>1 implies a multichain complex)>
1

> <BindingDB Target Chain Sequence>
MVTALSDVNNTDNYGAGQIQVLEGLEAVRKRPGMYIGSTSERGLHHLVWEIVDNSIDEALAGYANQIEVVIEKDNWIKVTDNGRGIPVDIQEKMGRPAVEVILTVLHAGGKFGGGGYKVSGGLHGVGSSVVNALSQDLEVYVHRNETIYHQAYKKGVPQFDLKEVGTTDKTGTVIRFKADGEIFTETTVYNYETLQQRIRELAFLNKGIQITLRDERDEENVREDSYHYEGGIKSYVELLNENKEPIHDEPIYIHQSKDDIEVEIAIQYNSGYATNLLTYANNIHTYEGGTHEDGFKRALTRVLNSYGLSSKIMKEEKDRLSGEDTREGMTAIISIKHGDPQFEGQTKTKLGNSEVRQVVDKLFSEHFERFLYENPQVARTVVEKGIMAARARVAAKKAREVTRRKSALDVASLPGKLADCSSKSPEECEIFLVEGDSAGGSTKSGRDSRTQAILPLRGKILNVEKARLDRILNNNEIRQMITAFGTGIGGDFDLAKARYHKIVIMTDADVDGAHIRTLLLTFFYRFMRPLIEAGYVYIAQPPLYKLTQGKQKYYVYNDRELDKLKSELNPTPKWSIARYKGLGEMNADQLWETTMNPEHRALLQVKLEDAIEADQTFEMLMGDVVENRRQFIEDNAVYANLDF

> <PDB ID(s) of Target Chain>


> <UniProt (SwissProt) Recommended Name of Target Chain>
DNA gyrase subunit B

> <UniProt (SwissProt) Entry Name of Target Chain>
GYRB_STAAU

> <UniProt (SwissProt) Primary ID of Target Chain>
P0A0K8

> <UniProt (SwissProt) Secondary ID(s) of Target Chain>
P20832

> <UniProt (SwissProt) Alternative ID(s) of Target Chain>


> <UniProt (TrEMBL) Submitted Name of Target Chain>


> <UniProt (TrEMBL) Entry Name of Target Chain>


> <UniProt (TrEMBL) Primary ID of Target Chain>


> <UniProt (TrEMBL) Secondary ID(s) of Target Chain>


> <UniProt (TrEMBL) Alternative ID(s) of Target Chain>


$$$$

  SciTegic09261414462D

 33 36  0  0  0  0            999 V2000
   16.1402  -15.0891    0.0000 C   0  0
   16.1390  -15.9086    0.0000 C   0  0
   16.8471  -16.3176    0.0000 C   0  0
   17.5567  -15.9082    0.0000 C   0  0
   17.5539  -15.0855    0.0000 C   0  0
   16.8453  -14.6802    0.0000 N   0  0
   15.4324  -14.6807    0.0000 N   0  0
   14.7248  -15.0894    0.0000 C   0  0
   14.0170  -14.6810    0.0000 N   0  0
   14.7250  -15.9066    0.0000 O   0  0
   13.3093  -15.0898    0.0000 C   0  0
   12.6015  -14.6814    0.0000 C   0  0
   18.2616  -16.3149    0.0000 C   0  0
   18.2615  -17.1332    0.0000 C   0  0
   18.9690  -17.5406    0.0000 N   0  0
   19.6771  -17.1308    0.0000 C   0  0
   19.6732  -16.3094    0.0000 C   0  0
   18.9651  -15.9057    0.0000 C   0  0
   20.3482  -15.8484    0.0000 C   0  0
   16.8519  -17.1348    0.0000 C   0  0
   16.1907  -17.6150    0.0000 S   0  0
   16.4430  -18.3922    0.0000 C   0  0
   17.2602  -18.3924    0.0000 C   0  0
   17.5128  -17.6153    0.0000 N   0  0
   17.7405  -19.0536    0.0000 C   0  0
   17.4080  -19.8001    0.0000 F   0  0
   18.5532  -18.9683    0.0000 F   0  0
   18.3166  -19.6291    0.0000 F   0  0
   21.1161  -16.1190    0.0000 N   0  0
   21.6155  -15.4722    0.0000 N   0  0
   21.1546  -14.7973    0.0000 C   0  0
   20.3705  -15.0272    0.0000 O   0  0
   21.4296  -14.0278    0.0000 C   0  0
  1  2  2  0
  2  3  1  0
  3  4  2  0
  4  5  1  0
  5  6  2  0
  6  1  1  0
  1  7  1  0
  7  8  1  0
  8  9  1  0
  8 10  2  0
  9 11  1  0
 11 12  1  0
 13 14  2  0
 14 15  1  0
 15 16  2  0
 16 17  1  0
 17 18  2  0
 18 13  1  0
  4 13  1  0
 17 19  1  0
 20 21  1  0
 21 22  1  0
 22 23  2  0
 23 24  1  0
 24 20  2  0
  3 20  1  0
 23 25  1  0
 25 26  1  0
 25 27  1  0
 25 28  1  0
 19 29  2  0
 29 30  1  0
 30 31  2  0
 31 32  1  0
 32 19  1  0
 31 33  1  0
M  END
> <From> 
www.bindingDB.org

> <BindingDB Reactant_set_id>
50083274

> <Ligand InChI>
InChI=1S/C20H16F3N7O2S/c1-3-25-19(31)28-16-5-13(18-27-15(9-33-18)20(21,22)23)14(8-26-16)11-4-12(7-24-6-11)17-30-29-10(2)32-17/h4-9H,3H2,1-2H3,(H2,25,26,28,31)

> <Ligand InChI Key>
IZOMSFFKIHWKAN-UHFFFAOYSA-N

> <BindingDB MonomerID>
50006570

> <BindingDB Ligand Name>
CHEMBL3235090

> <Target Name Assigned by Curator or DataSource>
DNA Gyrase Subunit B

> <Target Source Organism According to Curator or DataSource>
Staphylococcus aureus

> <Ki (nM)>


> <IC50 (nM)>
<10.0

> <Kd (nM)>


> <EC50 (nM)>


> <kon (M-1-s-1)>


> <koff (s-1)>


> <pH>


> <Temp C>


> <Curation/DataSource>
ChEMBL

> <Article DOI>
10.1021/jm401208b

> <PMID>
24098982

> <PubChem AID>


> <Patent Number>


> <Authors>
Basarab, GS; Basarab, GS; Boriack-Sjodin, PA; Boriack-Sjodin, PA; Illingworth, R; Illingworth, R; Manchester, JI; Manchester, JI; Dangel, B; Dangel, B; Sriram, S; Sriram, S

> <Institution>
AstraZeneca R&amp;D Boston

> <Link to Ligand in BindingDB>
http://www.bindingdb.org/bind/chemsearch/marvin/MolStructure.jsp?monomerid=50006570

> <Link to Ligand-Target Pair in BindingDB>
http://www.bindingdb.org/jsp/dbsearch/PrimarySearch_ki.jsp?energyterm=kJ/mole&tag=pol&polymerid=2626&target=DNA+Gyrase+Subunit+B&column=ki&startPg=0&Increment=50&submit=Search

> <Link to Ligand-Target Pair in BindingDB>
http://www.bindingdb.org/jsp/dbsearch/PrimarySearch_ki.jsp?energyterm=kJ/mole&tag=r21&monomerid=50006570&enzyme=DNA+Gyrase+Subunit+B&column=ki&startPg=0&Increment=50&submit=Search

> <Ligand HET ID in PDB>


> <PDB ID(s) for Ligand-Target Complex>


> <PubChem CID>
44205420

> <PubChem SID>
103919971

> <ChEBI ID of Ligand>


> <ChEMBL ID of Ligand>
CHEMBL3235090

> <DrugBank ID of Ligand>


> <IUPHAR_GRAC ID of Ligand>


> <KEGG ID of Ligand>


> <ZINC ID of Ligand>
ZINC26375853

> <Number of Protein Chains in Target (>1 implies a multichain complex)>
1

> <BindingDB Target Chain Sequence>
MVTALSDVNNTDNYGAGQIQVLEGLEAVRKRPGMYIGSTSERGLHHLVWEIVDNSIDEALAGYANQIEVVIEKDNWIKVTDNGRGIPVDIQEKMGRPAVEVILTVLHAGGKFGGGGYKVSGGLHGVGSSVVNALSQDLEVYVHRNETIYHQAYKKGVPQFDLKEVGTTDKTGTVIRFKADGEIFTETTVYNYETLQQRIRELAFLNKGIQITLRDERDEENVREDSYHYEGGIKSYVELLNENKEPIHDEPIYIHQSKDDIEVEIAIQYNSGYATNLLTYANNIHTYEGGTHEDGFKRALTRVLNSYGLSSKIMKEEKDRLSGEDTREGMTAIISIKHGDPQFEGQTKTKLGNSEVRQVVDKLFSEHFERFLYENPQVARTVVEKGIMAARARVAAKKAREVTRRKSALDVASLPGKLADCSSKSPEECEIFLVEGDSAGGSTKSGRDSRTQAILPLRGKILNVEKARLDRILNNNEIRQMITAFGTGIGGDFDLAKARYHKIVIMTDADVDGAHIRTLLLTFFYRFMRPLIEAGYVYIAQPPLYKLTQGKQKYYVYNDRELDKLKSELNPTPKWSIARYKGLGEMNADQLWETTMNPEHRALLQVKLEDAIEADQTFEMLMGDVVENRRQFIEDNAVYANLDF

> <PDB ID(s) of Target Chain>


> <UniProt (SwissProt) Recommended Name of Target Chain>
DNA gyrase subunit B

> <UniProt (SwissProt) Entry Name of Target Chain>
GYRB_STAAU

> <UniProt (SwissProt) Primary ID of Target Chain>
P0A0K8

> <UniProt (SwissProt) Secondary ID(s) of Target Chain>
P20832

> <UniProt (SwissProt) Alternative ID(s) of Target Chain>


> <UniProt (TrEMBL) Submitted Name of Target Chain>


> <UniProt (TrEMBL) Entry Name of Target Chain>


> <UniProt (TrEMBL) Primary ID of Target Chain>


> <UniProt (TrEMBL) Secondary ID(s) of Target Chain>


> <UniProt (TrEMBL) Alternative ID(s) of Target Chain>


$$$$

  Mrv0541 04241520572D          

 29 31  0  0  0  0            999 V2000
   15.9067  -20.8956    0.0000 C   0  0  0  0  0  0  0  0  0  0  0  0
   15.9056  -21.7230    0.0000 C   0  0  0  0  0  0  0  0  0  0  0  0
   16.6203  -22.1358    0.0000 C   0  0  0  0  0  0  0  0  0  0  0  0
   17.3368  -21.7225    0.0000 C   0  0  0  0  0  0  0  0  0  0  0  0
   17.3340  -20.8919    0.0000 C   0  0  0  0  0  0  0  0  0  0  0  0
   16.6186  -20.4829    0.0000 N   0  0  0  0  0  0  0  0  0  0  0  0
   15.1921  -20.4833    0.0000 N   0  0  0  0  0  0  0  0  0  0  0  0
   14.4778  -20.8960    0.0000 C   0  0  0  0  0  0  0  0  0  0  0  0
   13.7632  -20.4836    0.0000 N   0  0  0  0  0  0  0  0  0  0  0  0
   14.4780  -21.7209    0.0000 O   0  0  0  0  0  0  0  0  0  0  0  0
   13.0489  -20.8963    0.0000 C   0  0  0  0  0  0  0  0  0  0  0  0
   12.3343  -20.4840    0.0000 C   0  0  0  0  0  0  0  0  0  0  0  0
   18.0483  -22.1331    0.0000 C   0  0  0  0  0  0  0  0  0  0  0  0
   18.0483  -22.9592    0.0000 C   0  0  0  0  0  0  0  0  0  0  0  0
   18.7626  -23.3705    0.0000 N   0  0  0  0  0  0  0  0  0  0  0  0
   19.4774  -22.9568    0.0000 C   0  0  0  0  0  0  0  0  0  0  0  0
   19.4734  -22.1275    0.0000 C   0  0  0  0  0  0  0  0  0  0  0  0
   18.7586  -21.7200    0.0000 C   0  0  0  0  0  0  0  0  0  0  0  0
   16.6252  -22.9608    0.0000 C   0  0  0  0  0  0  0  0  0  0  0  0
   15.9577  -23.4456    0.0000 S   0  0  0  0  0  0  0  0  0  0  0  0
   16.2125  -24.2302    0.0000 C   0  0  0  0  0  0  0  0  0  0  0  0
   17.0375  -24.2304    0.0000 C   0  0  0  0  0  0  0  0  0  0  0  0
   17.2925  -23.4459    0.0000 N   0  0  0  0  0  0  0  0  0  0  0  0
   17.5223  -24.8979    0.0000 C   0  0  0  0  0  0  0  0  0  0  0  0
   17.1866  -25.6515    0.0000 F   0  0  0  0  0  0  0  0  0  0  0  0
   18.3428  -24.8118    0.0000 F   0  0  0  0  0  0  0  0  0  0  0  0
   18.1040  -25.4789    0.0000 F   0  0  0  0  0  0  0  0  0  0  0  0
   20.1814  -21.7098    0.0000 C   0  0  0  0  0  0  0  0  0  0  0  0
   20.8938  -21.2936    0.0000 N   0  0  0  0  0  0  0  0  0  0  0  0
  1  2  4  0  0  0  0
  2  3  4  0  0  0  0
  3  4  4  0  0  0  0
  4  5  4  0  0  0  0
  5  6  4  0  0  0  0
  6  1  4  0  0  0  0
  1  7  1  0  0  0  0
  7  8  1  0  0  0  0
  8  9  1  0  0  0  0
  8 10  2  0  0  0  0
  9 11  1  0  0  0  0
 11 12  1  0  0  0  0
 13 14  4  0  0  0  0
 14 15  4  0  0  0  0
 15 16  4  0  0  0  0
 16 17  4  0  0  0  0
 17 18  4  0  0  0  0
 18 13  4  0  0  0  0
  4 13  1  0  0  0  0
 19 20  4  0  0  0  0
 20 21  4  0  0  0  0
 21 22  4  0  0  0  0
 22 23  4  0  0  0  0
 23 19  4  0  0  0  0
  3 19  1  0  0  0  0
 22 24  1  0  0  0  0
 24 25  1  0  0  0  0
 24 26  1  0  0  0  0
 24 27  1  0  0  0  0
 28 29  3  0  0  0  0
 17 28  1  0  0  0  0
M  END
> <From> 
www.bindingDB.org

> <BindingDB Reactant_set_id>
50083277

> <Ligand InChI>
InChI=1S/C18H13F3N6OS/c1-2-24-17(28)27-15-4-12(16-26-14(9-29-16)18(19,20)21)13(8-25-15)11-3-10(5-22)6-23-7-11/h3-4,6-9H,2H2,1H3,(H2,24,25,27,28)

> <Ligand InChI Key>
SWKKTSRCBYSIKX-UHFFFAOYSA-N

> <BindingDB MonomerID>
50006602

> <BindingDB Ligand Name>
CHEMBL3235093

> <Target Name Assigned by Curator or DataSource>
DNA Gyrase Subunit B

> <Target Source Organism According to Curator or DataSource>
Staphylococcus aureus

> <Ki (nM)>


> <IC50 (nM)>
<10.0

> <Kd (nM)>


> <EC50 (nM)>


> <kon (M-1-s-1)>


> <koff (s-1)>


> <pH>


> <Temp C>


> <Curation/DataSource>
ChEMBL

> <Article DOI>
10.1021/jm401208b

> <PMID>
24098982

> <PubChem AID>


> <Patent Number>


> <Authors>
Basarab, GS; Basarab, GS; Boriack-Sjodin, PA; Boriack-Sjodin, PA; Illingworth, R; Illingworth, R; Manchester, JI; Manchester, JI; Dangel, B; Dangel, B; Sriram, S; Sriram, S

> <Institution>
AstraZeneca R&amp;D Boston

> <Link to Ligand in BindingDB>
http://www.bindingdb.org/bind/chemsearch/marvin/MolStructure.jsp?monomerid=50006602

> <Link to Ligand-Target Pair in BindingDB>
http://www.bindingdb.org/jsp/dbsearch/PrimarySearch_ki.jsp?energyterm=kJ/mole&tag=pol&polymerid=2626&target=DNA+Gyrase+Subunit+B&column=ki&startPg=0&Increment=50&submit=Search

> <Link to Ligand-Target Pair in BindingDB>
http://www.bindingdb.org/jsp/dbsearch/PrimarySearch_ki.jsp?energyterm=kJ/mole&tag=r21&monomerid=50006602&enzyme=DNA+Gyrase+Subunit+B&column=ki&startPg=0&Increment=50&submit=Search

> <Ligand HET ID in PDB>


> <PDB ID(s) for Ligand-Target Complex>


> <PubChem CID>
44205421

> <PubChem SID>
242057014

> <ChEBI ID of Ligand>


> <ChEMBL ID of Ligand>
CHEMBL3235093

> <DrugBank ID of Ligand>


> <IUPHAR_GRAC ID of Ligand>


> <KEGG ID of Ligand>


> <ZINC ID of Ligand>


> <Number of Protein Chains in Target (>1 implies a multichain complex)>
1

> <BindingDB Target Chain Sequence>
MVTALSDVNNTDNYGAGQIQVLEGLEAVRKRPGMYIGSTSERGLHHLVWEIVDNSIDEALAGYANQIEVVIEKDNWIKVTDNGRGIPVDIQEKMGRPAVEVILTVLHAGGKFGGGGYKVSGGLHGVGSSVVNALSQDLEVYVHRNETIYHQAYKKGVPQFDLKEVGTTDKTGTVIRFKADGEIFTETTVYNYETLQQRIRELAFLNKGIQITLRDERDEENVREDSYHYEGGIKSYVELLNENKEPIHDEPIYIHQSKDDIEVEIAIQYNSGYATNLLTYANNIHTYEGGTHEDGFKRALTRVLNSYGLSSKIMKEEKDRLSGEDTREGMTAIISIKHGDPQFEGQTKTKLGNSEVRQVVDKLFSEHFERFLYENPQVARTVVEKGIMAARARVAAKKAREVTRRKSALDVASLPGKLADCSSKSPEECEIFLVEGDSAGGSTKSGRDSRTQAILPLRGKILNVEKARLDRILNNNEIRQMITAFGTGIGGDFDLAKARYHKIVIMTDADVDGAHIRTLLLTFFYRFMRPLIEAGYVYIAQPPLYKLTQGKQKYYVYNDRELDKLKSELNPTPKWSIARYKGLGEMNADQLWETTMNPEHRALLQVKLEDAIEADQTFEMLMGDVVENRRQFIEDNAVYANLDF

> <PDB ID(s) of Target Chain>


> <UniProt (SwissProt) Recommended Name of Target Chain>
DNA gyrase subunit B

> <UniProt (SwissProt) Entry Name of Target Chain>
GYRB_STAAU

> <UniProt (SwissProt) Primary ID of Target Chain>
P0A0K8

> <UniProt (SwissProt) Secondary ID(s) of Target Chain>
P20832

> <UniProt (SwissProt) Alternative ID(s) of Target Chain>


> <UniProt (TrEMBL) Submitted Name of Target Chain>


> <UniProt (TrEMBL) Entry Name of Target Chain>


> <UniProt (TrEMBL) Primary ID of Target Chain>


> <UniProt (TrEMBL) Secondary ID(s) of Target Chain>


> <UniProt (TrEMBL) Alternative ID(s) of Target Chain>


$$$$

  Mrv0541 04241520572D          

 32 35  0  0  0  0            999 V2000
   26.9434  -21.4575    0.0000 C   0  0  0  0  0  0  0  0  0  0  0  0
   26.9422  -22.2848    0.0000 C   0  0  0  0  0  0  0  0  0  0  0  0
   27.6570  -22.6977    0.0000 C   0  0  0  0  0  0  0  0  0  0  0  0
   28.3734  -22.2844    0.0000 C   0  0  0  0  0  0  0  0  0  0  0  0
   28.3705  -21.4538    0.0000 C   0  0  0  0  0  0  0  0  0  0  0  0
   27.6552  -21.0447    0.0000 N   0  0  0  0  0  0  0  0  0  0  0  0
   26.2289  -21.0452    0.0000 N   0  0  0  0  0  0  0  0  0  0  0  0
   25.5145  -21.4578    0.0000 C   0  0  0  0  0  0  0  0  0  0  0  0
   24.7999  -21.0455    0.0000 N   0  0  0  0  0  0  0  0  0  0  0  0
   25.5146  -22.2828    0.0000 O   0  0  0  0  0  0  0  0  0  0  0  0
   24.0856  -21.4582    0.0000 C   0  0  0  0  0  0  0  0  0  0  0  0
   23.3710  -21.0458    0.0000 C   0  0  0  0  0  0  0  0  0  0  0  0
   29.0850  -22.6949    0.0000 C   0  0  0  0  0  0  0  0  0  0  0  0
   29.0849  -23.5210    0.0000 C   0  0  0  0  0  0  0  0  0  0  0  0
   29.7991  -23.9323    0.0000 N   0  0  0  0  0  0  0  0  0  0  0  0
   30.5140  -23.5186    0.0000 C   0  0  0  0  0  0  0  0  0  0  0  0
   30.5100  -22.6894    0.0000 C   0  0  0  0  0  0  0  0  0  0  0  0
   29.7952  -22.2818    0.0000 C   0  0  0  0  0  0  0  0  0  0  0  0
   31.1914  -22.2239    0.0000 C   0  0  0  0  0  0  0  0  0  0  0  0
   27.6619  -23.5226    0.0000 C   0  0  0  0  0  0  0  0  0  0  0  0
   26.9944  -24.0073    0.0000 S   0  0  0  0  0  0  0  0  0  0  0  0
   27.2491  -24.7920    0.0000 C   0  0  0  0  0  0  0  0  0  0  0  0
   28.0741  -24.7922    0.0000 C   0  0  0  0  0  0  0  0  0  0  0  0
   28.3291  -24.0077    0.0000 N   0  0  0  0  0  0  0  0  0  0  0  0
   28.5589  -25.4597    0.0000 C   0  0  0  0  0  0  0  0  0  0  0  0
   28.2233  -26.2133    0.0000 F   0  0  0  0  0  0  0  0  0  0  0  0
   29.3794  -25.3736    0.0000 F   0  0  0  0  0  0  0  0  0  0  0  0
   29.1405  -26.0407    0.0000 F   0  0  0  0  0  0  0  0  0  0  0  0
   31.9666  -22.4972    0.0000 N   0  0  0  0  0  0  0  0  0  0  0  0
   32.4708  -21.8442    0.0000 N   0  0  0  0  0  0  0  0  0  0  0  0
   32.0055  -21.1629    0.0000 N   0  0  0  0  0  0  0  0  0  0  0  0
   31.2139  -21.3950    0.0000 N   0  0  0  0  0  0  0  0  0  0  0  0
  1  2  4  0  0  0  0
  2  3  4  0  0  0  0
  3  4  4  0  0  0  0
  4  5  4  0  0  0  0
  5  6  4  0  0  0  0
  6  1  4  0  0  0  0
  1  7  1  0  0  0  0
  7  8  1  0  0  0  0
  8  9  1  0  0  0  0
  8 10  2  0  0  0  0
  9 11  1  0  0  0  0
 11 12  1  0  0  0  0
 13 14  4  0  0  0  0
 14 15  4  0  0  0  0
 15 16  4  0  0  0  0
 16 17  4  0  0  0  0
 17 18  4  0  0  0  0
 18 13  4  0  0  0  0
  4 13  1  0  0  0  0
 17 19  1  0  0  0  0
 20 21  4  0  0  0  0
 21 22  4  0  0  0  0
 22 23  4  0  0  0  0
 23 24  4  0  0  0  0
 24 20  4  0  0  0  0
  3 20  1  0  0  0  0
 23 25  1  0  0  0  0
 25 26  1  0  0  0  0
 25 27  1  0  0  0  0
 25 28  1  0  0  0  0
 19 29  4  0  0  0  0
 29 30  4  0  0  0  0
 30 31  4  0  0  0  0
 31 32  4  0  0  0  0
 32 19  4  0  0  0  0
M  STY  1   1 DAT
M  SAL   1  1  29
M  SDT   1 MRV_IMPLICIT_H                                        
M  SDD   1     0.0000    0.0000    DR    ALL  0       0  
M  SED   1 IMPL_H1
M  END
> <From> 
www.bindingDB.org

> <BindingDB Reactant_set_id>
50083278

> <Ligand InChI>
InChI=1S/C18H14F3N9OS/c1-2-23-17(31)26-14-4-11(16-25-13(8-32-16)18(19,20)21)12(7-24-14)9-3-10(6-22-5-9)15-27-29-30-28-15/h3-8H,2H2,1H3,(H2,23,24,26,31)(H,27,28,29,30)

> <Ligand InChI Key>
OHBFKEKMWOMRIF-UHFFFAOYSA-N

> <BindingDB MonomerID>
50006603

> <BindingDB Ligand Name>
CHEMBL3235094

> <Target Name Assigned by Curator or DataSource>
DNA Gyrase Subunit B

> <Target Source Organism According to Curator or DataSource>
Staphylococcus aureus

> <Ki (nM)>


> <IC50 (nM)>
<10.0

> <Kd (nM)>


> <EC50 (nM)>


> <kon (M-1-s-1)>


> <koff (s-1)>


> <pH>


> <Temp C>


> <Curation/DataSource>
ChEMBL

> <Article DOI>
10.1021/jm401208b

> <PMID>
24098982

> <PubChem AID>


> <Patent Number>


> <Authors>
Basarab, GS; Basarab, GS; Boriack-Sjodin, PA; Boriack-Sjodin, PA; Illingworth, R; Illingworth, R; Manchester, JI; Manchester, JI; Dangel, B; Dangel, B; Sriram, S; Sriram, S

> <Institution>
AstraZeneca R&amp;D Boston

> <Link to Ligand in BindingDB>
http://www.bindingdb.org/bind/chemsearch/marvin/MolStructure.jsp?monomerid=50006603

> <Link to Ligand-Target Pair in BindingDB>
http://www.bindingdb.org/jsp/dbsearch/PrimarySearch_ki.jsp?energyterm=kJ/mole&tag=pol&polymerid=2626&target=DNA+Gyrase+Subunit+B&column=ki&startPg=0&Increment=50&submit=Search

> <Link to Ligand-Target Pair in BindingDB>
http://www.bindingdb.org/jsp/dbsearch/PrimarySearch_ki.jsp?energyterm=kJ/mole&tag=r21&monomerid=50006603&enzyme=DNA+Gyrase+Subunit+B&column=ki&startPg=0&Increment=50&submit=Search

> <Ligand HET ID in PDB>


> <PDB ID(s) for Ligand-Target Complex>


> <PubChem CID>
44205422

> <PubChem SID>
242057015

> <ChEBI ID of Ligand>


> <ChEMBL ID of Ligand>
CHEMBL3235094

> <DrugBank ID of Ligand>


> <IUPHAR_GRAC ID of Ligand>


> <KEGG ID of Ligand>


> <ZINC ID of Ligand>


> <Number of Protein Chains in Target (>1 implies a multichain complex)>
1

> <BindingDB Target Chain Sequence>
MVTALSDVNNTDNYGAGQIQVLEGLEAVRKRPGMYIGSTSERGLHHLVWEIVDNSIDEALAGYANQIEVVIEKDNWIKVTDNGRGIPVDIQEKMGRPAVEVILTVLHAGGKFGGGGYKVSGGLHGVGSSVVNALSQDLEVYVHRNETIYHQAYKKGVPQFDLKEVGTTDKTGTVIRFKADGEIFTETTVYNYETLQQRIRELAFLNKGIQITLRDERDEENVREDSYHYEGGIKSYVELLNENKEPIHDEPIYIHQSKDDIEVEIAIQYNSGYATNLLTYANNIHTYEGGTHEDGFKRALTRVLNSYGLSSKIMKEEKDRLSGEDTREGMTAIISIKHGDPQFEGQTKTKLGNSEVRQVVDKLFSEHFERFLYENPQVARTVVEKGIMAARARVAAKKAREVTRRKSALDVASLPGKLADCSSKSPEECEIFLVEGDSAGGSTKSGRDSRTQAILPLRGKILNVEKARLDRILNNNEIRQMITAFGTGIGGDFDLAKARYHKIVIMTDADVDGAHIRTLLLTFFYRFMRPLIEAGYVYIAQPPLYKLTQGKQKYYVYNDRELDKLKSELNPTPKWSIARYKGLGEMNADQLWETTMNPEHRALLQVKLEDAIEADQTFEMLMGDVVENRRQFIEDNAVYANLDF

> <PDB ID(s) of Target Chain>


> <UniProt (SwissProt) Recommended Name of Target Chain>
DNA gyrase subunit B

> <UniProt (SwissProt) Entry Name of Target Chain>
GYRB_STAAU

> <UniProt (SwissProt) Primary ID of Target Chain>
P0A0K8

> <UniProt (SwissProt) Secondary ID(s) of Target Chain>
P20832

> <UniProt (SwissProt) Alternative ID(s) of Target Chain>


> <UniProt (TrEMBL) Submitted Name of Target Chain>


> <UniProt (TrEMBL) Entry Name of Target Chain>


> <UniProt (TrEMBL) Primary ID of Target Chain>


> <UniProt (TrEMBL) Secondary ID(s) of Target Chain>


> <UniProt (TrEMBL) Alternative ID(s) of Target Chain>


$$$$

  SciTegic09291413392D

 28 31  0  0  0  0            999 V2000
    5.6199  -16.6863    0.0000 C   0  0
    5.6187  -17.5059    0.0000 C   0  0
    6.3268  -17.9148    0.0000 N   0  0
    6.3250  -16.2775    0.0000 C   0  0
    7.0336  -16.6827    0.0000 C   0  0
    7.0384  -17.5059    0.0000 C   0  0
    7.8228  -17.7557    0.0000 S   0  0
    8.3028  -17.0869    0.0000 C   0  0
    7.8150  -16.4239    0.0000 N   0  0
    4.9141  -16.2781    0.0000 C   0  0
    4.9153  -15.4598    0.0000 C   0  0
    4.2083  -15.0514    0.0000 N   0  0
    3.4997  -15.4603    0.0000 C   0  0
    3.5025  -16.2817    0.0000 N   0  0
    9.1200  -17.0821    0.0000 N   0  0
    9.5244  -16.3720    0.0000 C   0  0
   10.3416  -16.3671    0.0000 N   0  0
    9.1116  -15.6667    0.0000 O   0  0
   10.7460  -15.6570    0.0000 C   0  0
   11.5632  -15.6522    0.0000 C   0  0
    4.9107  -17.9139    0.0000 O   0  0
    4.2033  -17.5048    0.0000 C   0  0
    4.2040  -16.6876    0.0000 C   0  0
    3.4953  -17.9128    0.0000 C   0  0
    2.7524  -17.5821    0.0000 C   0  0
    2.2051  -18.1890    0.0000 C   0  0
    2.6132  -18.8971    0.0000 O   0  0
    3.4126  -18.7277    0.0000 C   0  0
  1  2  2  0
  2  3  1  0
  3  6  2  0
  5  4  2  0
  4  1  1  0
  5  6  1  0
  6  7  1  0
  7  8  1  0
  8  9  2  0
  9  5  1  0
 10 11  2  0
 11 12  1  0
 12 13  2  0
 13 14  1  0
 14 23  2  0
 23 10  1  0
  1 10  1  0
  8 15  1  0
 15 16  1  0
 16 17  1  0
 16 18  2  0
 17 19  1  0
 19 20  1  0
  2 21  1  0
 21 22  1  0
 22 24  1  0
 24 25  1  0
 25 26  1  0
 26 27  1  0
 27 28  1  0
 28 24  1  0
M  END
> <From> 
www.bindingDB.org

> <BindingDB Reactant_set_id>
50089908

> <Ligand InChI>
InChI=1S/C18H20N6O3S/c1-2-21-17(25)24-18-22-14-5-13(12-6-19-10-20-7-12)15(23-16(14)28-18)27-9-11-3-4-26-8-11/h5-7,10-11H,2-4,8-9H2,1H3,(H2,21,22,24,25)

> <Ligand InChI Key>
GVEJQEIIQCQRCC-UHFFFAOYSA-N

> <BindingDB MonomerID>
50010352

> <BindingDB Ligand Name>
CHEMBL3263596

> <Target Name Assigned by Curator or DataSource>
DNA gyrase subunit B

> <Target Source Organism According to Curator or DataSource>


> <Ki (nM)>


> <IC50 (nM)>
 10.0

> <Kd (nM)>


> <EC50 (nM)>


> <kon (M-1-s-1)>


> <koff (s-1)>


> <pH>


> <Temp C>


> <Curation/DataSource>
ChEMBL

> <Article DOI>
10.1021/jm401268f

> <PMID>
24088190

> <PubChem AID>


> <Patent Number>


> <Authors>
Ahuja, V; Ahuja, V; Basavarajappa, H; Basavarajappa, H; P, SH; P, SH; Boriack-Sjodin, PA; Boriack-Sjodin, PA; McKinney, D; McKinney, D; Ganguly, S; Ganguly, S; Kranthi, U; Kranthi, U; Gaonkar, S; Gaonkar, S; Jena, Lk; Jena, Lk; Ghorpade, SR; Ghorpade, SR; Ghosh, A; Ghosh, A; Barde, S; Barde, S; Kale, MG; Kale, MG; Koushik, K; Koushik, K; Kumar, CN; Kumar, CN; Manjunatha, MR; Manjunatha, MR; Ogg, D; Ogg, D; Panduga, V; Panduga, V; Ramya, VK; Ramya, VK; Reddy, J; Reddy, J; Kumar, KN; Kumar, KN; Giridhar, J; Giridhar, J; Rudrapatna, S; Rudrapatna, S; Sharma, S; Sharma, S; Tucker, JA; Tucker, JA; Vachaspati, P; Vachaspati, P; Waterson, D; Waterson, D; de Sousa, SM; de Sousa, SM

> <Institution>
AstraZeneca India Pvt. Ltd.

> <Link to Ligand in BindingDB>
http://www.bindingdb.org/bind/chemsearch/marvin/MolStructure.jsp?monomerid=50010352

> <Link to Ligand-Target Pair in BindingDB>
http://www.bindingdb.org/jsp/dbsearch/PrimarySearch_ki.jsp?energyterm=kJ/mole&tag=pol&polymerid=50006452&target=DNA+gyrase+subunit+B&column=ki&startPg=0&Increment=50&submit=Search

> <Link to Ligand-Target Pair in BindingDB>
http://www.bindingdb.org/jsp/dbsearch/PrimarySearch_ki.jsp?energyterm=kJ/mole&tag=r21&monomerid=50010352&enzyme=DNA+gyrase+subunit+B&column=ki&startPg=0&Increment=50&submit=Search

> <Ligand HET ID in PDB>
28F

> <PDB ID(s) for Ligand-Target Complex>
4MB9

> <PubChem CID>
59352787

> <PubChem SID>
103923166

> <ChEBI ID of Ligand>


> <ChEMBL ID of Ligand>
CHEMBL3263596

> <DrugBank ID of Ligand>


> <IUPHAR_GRAC ID of Ligand>


> <KEGG ID of Ligand>


> <ZINC ID of Ligand>
ZINC26971012

> <Number of Protein Chains in Target (>1 implies a multichain complex)>
1

> <BindingDB Target Chain Sequence>
MAAQKNNAPKEYGADSITILEGLEAVRKRPGMYIGSTGERGLHHLIWEVVDNAVDEAMAGFATRVDVKIHADGSVEVRDDGRGIPVEMHATGMPTIDVVMTQLHAGGKFDGETYAVSGGLHGVGVSVVNALSTRLEATVLRDGYEWFQYYDRSVPGKLKQGGETKETGTTIRFWADPEIFETTDYNFETVARRLQEMAFLNKGLTIELTDERVTAEEVVDDVVKDTAEAPKTADEKAAEATGPSKVKHRVFHYPGGLVDYVKHINRTKTPIQQSIIDFDGKGPGHEVEIAMQWNAGYSESVHTFANTINTHEGGTHEEGFRAALTSVVNRYAKDKKLLKDKDPNLTGDDIREGLAAVISVKVAEPQFEGQTKTKLGNTEVKSFVQKICNEQLQHWFEANPAEAKTVVNKAVSSAQARIAARKARELVRRKSATDIGGLPGKLADCRSTDPSKSELYVVEGDSAGGSAKSGRDSMFQAILPLRGKIINVEKARIDRVLKNTEVQSIITALGTGIHDEFDISKLRYHKIVLMADADVDGQHISTLLLTLLFRFMKPLVENGHIFLAQPPLYKLKWQRSEPEFAYSDRERDGLLEAGRAAGKKINVDDGIQRYKGLGEMDAKELWETTMDPSVRVLRQVTLDDAAAADELFSILMGEDVEARRSFITRNAKDVRFLDV

> <PDB ID(s) of Target Chain>
4BAE

> <UniProt (SwissProt) Recommended Name of Target Chain>
DNA gyrase subunit B

> <UniProt (SwissProt) Entry Name of Target Chain>
GYRB_MYCSM

> <UniProt (SwissProt) Primary ID of Target Chain>
P0C559

> <UniProt (SwissProt) Secondary ID(s) of Target Chain>
P48355,Q59555

> <UniProt (SwissProt) Alternative ID(s) of Target Chain>


> <UniProt (TrEMBL) Submitted Name of Target Chain>


> <UniProt (TrEMBL) Entry Name of Target Chain>


> <UniProt (TrEMBL) Primary ID of Target Chain>


> <UniProt (TrEMBL) Secondary ID(s) of Target Chain>


> <UniProt (TrEMBL) Alternative ID(s) of Target Chain>


$$$$

  SciTegic09291413392D

 34 37  0  0  0  0            999 V2000
   22.3159  -14.5980    0.0000 C   0  0
   24.4400  -13.3681    0.0000 C   0  0
   24.4389  -14.1876    0.0000 C   0  0
   25.1469  -14.5966    0.0000 N   0  0
   25.1451  -12.9592    0.0000 C   0  0
   25.8538  -13.3645    0.0000 C   0  0
   25.8586  -14.1876    0.0000 C   0  0
   26.6430  -14.4374    0.0000 S   0  0
   27.1230  -13.7686    0.0000 C   0  0
   26.6352  -13.1056    0.0000 N   0  0
   23.7343  -12.9598    0.0000 C   0  0
   23.7354  -12.1415    0.0000 C   0  0
   23.0285  -11.7332    0.0000 N   0  0
   22.3199  -12.1420    0.0000 C   0  0
   22.3227  -12.9634    0.0000 C   0  0
   27.9401  -13.7638    0.0000 N   0  0
   28.3446  -13.0537    0.0000 C   0  0
   29.1617  -13.0488    0.0000 N   0  0
   27.9318  -12.3484    0.0000 O   0  0
   29.5661  -12.3387    0.0000 C   0  0
   30.3833  -12.3339    0.0000 C   0  0
   23.0241  -13.3693    0.0000 C   0  0
   23.7309  -14.5956    0.0000 O   0  0
   23.0235  -14.1865    0.0000 C   0  0
   21.0212  -14.8776    0.0000 C   0  0
   21.4329  -15.5853    0.0000 O   0  0
   22.2329  -15.4124    0.0000 C   0  0
   21.6155  -13.3729    0.0000 O   0  0
   21.6165  -14.1900    0.0000 C   0  0
   20.9073  -12.9651    0.0000 C   0  0
   20.9063  -12.1479    0.0000 C   0  0
   20.1981  -11.7402    0.0000 N   0  0
   20.1971  -10.9230    0.0000 C   0  0
   19.4909  -12.1497    0.0000 C   0  0
  2  3  2  0
  3  4  1  0
  4  7  2  0
  6  5  2  0
  5  2  1  0
  6  7  1  0
  7  8  1  0
  8  9  1  0
  9 10  2  0
 10  6  1  0
 11 12  2  0
 12 13  1  0
 13 14  2  0
 14 15  1  0
 15 22  2  0
 22 11  1  0
  2 11  1  0
  9 16  1  0
 16 17  1  0
 17 18  1  0
 17 19  2  0
 18 20  1  0
 20 21  1  0
  3 23  1  0
 23 24  1  0
 24  1  1  0
  1 29  1  0
 29 25  1  0
 25 26  1  0
 26 27  1  0
 27  1  1  0
 15 28  1  0
 28 30  1  0
 30 31  1  0
 31 32  1  0
 32 33  1  0
 32 34  1  0
M  END
> <From> 
www.bindingDB.org

> <BindingDB Reactant_set_id>
50089942

> <Ligand InChI>
InChI=1S/C23H30N6O4S/c1-4-25-22(30)28-23-26-19-10-18(16-9-17(12-24-11-16)32-8-6-29(2)3)20(27-21(19)34-23)33-14-15-5-7-31-13-15/h9-12,15H,4-8,13-14H2,1-3H3,(H2,25,26,28,30)

> <Ligand InChI Key>
VGKPMCOBORDTPY-UHFFFAOYSA-N

> <BindingDB MonomerID>
50010370

> <BindingDB Ligand Name>
CHEMBL3263612

> <Target Name Assigned by Curator or DataSource>
DNA gyrase subunit B

> <Target Source Organism According to Curator or DataSource>


> <Ki (nM)>


> <IC50 (nM)>
 10.0

> <Kd (nM)>


> <EC50 (nM)>


> <kon (M-1-s-1)>


> <koff (s-1)>


> <pH>


> <Temp C>


> <Curation/DataSource>
ChEMBL

> <Article DOI>
10.1021/jm401268f

> <PMID>
24088190

> <PubChem AID>


> <Patent Number>


> <Authors>
Ahuja, V; Ahuja, V; Basavarajappa, H; Basavarajappa, H; P, SH; P, SH; Boriack-Sjodin, PA; Boriack-Sjodin, PA; McKinney, D; McKinney, D; Ganguly, S; Ganguly, S; Kranthi, U; Kranthi, U; Gaonkar, S; Gaonkar, S; Jena, Lk; Jena, Lk; Ghorpade, SR; Ghorpade, SR; Ghosh, A; Ghosh, A; Barde, S; Barde, S; Kale, MG; Kale, MG; Koushik, K; Koushik, K; Kumar, CN; Kumar, CN; Manjunatha, MR; Manjunatha, MR; Ogg, D; Ogg, D; Panduga, V; Panduga, V; Ramya, VK; Ramya, VK; Reddy, J; Reddy, J; Kumar, KN; Kumar, KN; Giridhar, J; Giridhar, J; Rudrapatna, S; Rudrapatna, S; Sharma, S; Sharma, S; Tucker, JA; Tucker, JA; Vachaspati, P; Vachaspati, P; Waterson, D; Waterson, D; de Sousa, SM; de Sousa, SM

> <Institution>
AstraZeneca India Pvt. Ltd.

> <Link to Ligand in BindingDB>
http://www.bindingdb.org/bind/chemsearch/marvin/MolStructure.jsp?monomerid=50010370

> <Link to Ligand-Target Pair in BindingDB>
http://www.bindingdb.org/jsp/dbsearch/PrimarySearch_ki.jsp?energyterm=kJ/mole&tag=pol&polymerid=50006452&target=DNA+gyrase+subunit+B&column=ki&startPg=0&Increment=50&submit=Search

> <Link to Ligand-Target Pair in BindingDB>
http://www.bindingdb.org/jsp/dbsearch/PrimarySearch_ki.jsp?energyterm=kJ/mole&tag=r21&monomerid=50010370&enzyme=DNA+gyrase+subunit+B&column=ki&startPg=0&Increment=50&submit=Search

> <Ligand HET ID in PDB>


> <PDB ID(s) for Ligand-Target Complex>


> <PubChem CID>
72713309

> <PubChem SID>
103923184

> <ChEBI ID of Ligand>


> <ChEMBL ID of Ligand>
CHEMBL3263612

> <DrugBank ID of Ligand>


> <IUPHAR_GRAC ID of Ligand>


> <KEGG ID of Ligand>


> <ZINC ID of Ligand>
ZINC13446849

> <Number of Protein Chains in Target (>1 implies a multichain complex)>
1

> <BindingDB Target Chain Sequence>
MAAQKNNAPKEYGADSITILEGLEAVRKRPGMYIGSTGERGLHHLIWEVVDNAVDEAMAGFATRVDVKIHADGSVEVRDDGRGIPVEMHATGMPTIDVVMTQLHAGGKFDGETYAVSGGLHGVGVSVVNALSTRLEATVLRDGYEWFQYYDRSVPGKLKQGGETKETGTTIRFWADPEIFETTDYNFETVARRLQEMAFLNKGLTIELTDERVTAEEVVDDVVKDTAEAPKTADEKAAEATGPSKVKHRVFHYPGGLVDYVKHINRTKTPIQQSIIDFDGKGPGHEVEIAMQWNAGYSESVHTFANTINTHEGGTHEEGFRAALTSVVNRYAKDKKLLKDKDPNLTGDDIREGLAAVISVKVAEPQFEGQTKTKLGNTEVKSFVQKICNEQLQHWFEANPAEAKTVVNKAVSSAQARIAARKARELVRRKSATDIGGLPGKLADCRSTDPSKSELYVVEGDSAGGSAKSGRDSMFQAILPLRGKIINVEKARIDRVLKNTEVQSIITALGTGIHDEFDISKLRYHKIVLMADADVDGQHISTLLLTLLFRFMKPLVENGHIFLAQPPLYKLKWQRSEPEFAYSDRERDGLLEAGRAAGKKINVDDGIQRYKGLGEMDAKELWETTMDPSVRVLRQVTLDDAAAADELFSILMGEDVEARRSFITRNAKDVRFLDV

> <PDB ID(s) of Target Chain>
4BAE

> <UniProt (SwissProt) Recommended Name of Target Chain>
DNA gyrase subunit B

> <UniProt (SwissProt) Entry Name of Target Chain>
GYRB_MYCSM

> <UniProt (SwissProt) Primary ID of Target Chain>
P0C559

> <UniProt (SwissProt) Secondary ID(s) of Target Chain>
P48355,Q59555

> <UniProt (SwissProt) Alternative ID(s) of Target Chain>


> <UniProt (TrEMBL) Submitted Name of Target Chain>


> <UniProt (TrEMBL) Entry Name of Target Chain>


> <UniProt (TrEMBL) Primary ID of Target Chain>


> <UniProt (TrEMBL) Secondary ID(s) of Target Chain>


> <UniProt (TrEMBL) Alternative ID(s) of Target Chain>


$$$$

  SciTegic09291413392D

 28 31  0  0  0  0            999 V2000
   10.1571  -20.8136    0.0000 C   0  0
   12.2812  -19.5837    0.0000 C   0  0
   12.2801  -20.4032    0.0000 C   0  0
   12.9881  -20.8122    0.0000 N   0  0
   12.9863  -19.1748    0.0000 C   0  0
   13.6949  -19.5801    0.0000 C   0  0
   13.6998  -20.4032    0.0000 C   0  0
   14.4842  -20.6530    0.0000 S   0  0
   14.9642  -19.9842    0.0000 C   0  0
   14.4763  -19.3212    0.0000 N   0  0
   15.7813  -19.9794    0.0000 N   0  0
   16.1857  -19.2693    0.0000 C   0  0
   17.0029  -19.2645    0.0000 N   0  0
   15.7730  -18.5640    0.0000 O   0  0
   17.4073  -18.5543    0.0000 C   0  0
   18.2245  -18.5495    0.0000 C   0  0
   11.5720  -20.8112    0.0000 O   0  0
   10.8647  -20.4021    0.0000 C   0  0
    8.8624  -21.0932    0.0000 C   0  0
    9.2740  -21.8009    0.0000 O   0  0
   10.0741  -21.6280    0.0000 C   0  0
    9.4577  -20.4056    0.0000 C   0  0
   11.5734  -19.1760    0.0000 C   0  0
   11.4877  -18.3633    0.0000 C   0  0
   10.6884  -18.1936    0.0000 N   0  0
   10.2799  -18.9015    0.0000 N   0  0
   10.8269  -19.5085    0.0000 C   0  0
    9.4672  -18.9871    0.0000 C   0  0
  2  3  2  0
  3  4  1  0
  4  7  2  0
  6  5  2  0
  5  2  1  0
  6  7  1  0
  7  8  1  0
  8  9  1  0
  9 10  2  0
 10  6  1  0
  9 11  1  0
 11 12  1  0
 12 13  1  0
 12 14  2  0
 13 15  1  0
 15 16  1  0
  3 17  1  0
 17 18  1  0
 18  1  1  0
  1 22  1  0
 22 19  1  0
 19 20  1  0
 20 21  1  0
 21  1  1  0
 23 24  1  0
 24 25  2  0
 25 26  1  0
 26 27  1  0
 27 23  2  0
  2 23  1  0
 26 28  1  0
M  END
> <From> 
www.bindingDB.org

> <BindingDB Reactant_set_id>
50089947

> <Ligand InChI>
InChI=1S/C18H22N6O3S/c1-3-19-17(25)23-18-21-14-6-13(12-7-20-24(2)8-12)15(22-16(14)28-18)27-10-11-4-5-26-9-11/h6-8,11H,3-5,9-10H2,1-2H3,(H2,19,21,23,25)

> <Ligand InChI Key>
XWWLYYMGIBRVJY-UHFFFAOYSA-N

> <BindingDB MonomerID>
50010372

> <BindingDB Ligand Name>
CHEMBL3263614

> <Target Name Assigned by Curator or DataSource>
DNA gyrase subunit B

> <Target Source Organism According to Curator or DataSource>


> <Ki (nM)>


> <IC50 (nM)>
 10.0

> <Kd (nM)>


> <EC50 (nM)>


> <kon (M-1-s-1)>


> <koff (s-1)>


> <pH>


> <Temp C>


> <Curation/DataSource>
ChEMBL

> <Article DOI>
10.1021/jm401268f

> <PMID>
24088190

> <PubChem AID>


> <Patent Number>


> <Authors>
Ahuja, V; Ahuja, V; Basavarajappa, H; Basavarajappa, H; P, SH; P, SH; Boriack-Sjodin, PA; Boriack-Sjodin, PA; McKinney, D; McKinney, D; Ganguly, S; Ganguly, S; Kranthi, U; Kranthi, U; Gaonkar, S; Gaonkar, S; Jena, Lk; Jena, Lk; Ghorpade, SR; Ghorpade, SR; Ghosh, A; Ghosh, A; Barde, S; Barde, S; Kale, MG; Kale, MG; Koushik, K; Koushik, K; Kumar, CN; Kumar, CN; Manjunatha, MR; Manjunatha, MR; Ogg, D; Ogg, D; Panduga, V; Panduga, V; Ramya, VK; Ramya, VK; Reddy, J; Reddy, J; Kumar, KN; Kumar, KN; Giridhar, J; Giridhar, J; Rudrapatna, S; Rudrapatna, S; Sharma, S; Sharma, S; Tucker, JA; Tucker, JA; Vachaspati, P; Vachaspati, P; Waterson, D; Waterson, D; de Sousa, SM; de Sousa, SM

> <Institution>
AstraZeneca India Pvt. Ltd.

> <Link to Ligand in BindingDB>
http://www.bindingdb.org/bind/chemsearch/marvin/MolStructure.jsp?monomerid=50010372

> <Link to Ligand-Target Pair in BindingDB>
http://www.bindingdb.org/jsp/dbsearch/PrimarySearch_ki.jsp?energyterm=kJ/mole&tag=pol&polymerid=50006452&target=DNA+gyrase+subunit+B&column=ki&startPg=0&Increment=50&submit=Search

> <Link to Ligand-Target Pair in BindingDB>
http://www.bindingdb.org/jsp/dbsearch/PrimarySearch_ki.jsp?energyterm=kJ/mole&tag=r21&monomerid=50010372&enzyme=DNA+gyrase+subunit+B&column=ki&startPg=0&Increment=50&submit=Search

> <Ligand HET ID in PDB>


> <PDB ID(s) for Ligand-Target Complex>


> <PubChem CID>
59352843

> <PubChem SID>
103923186

> <ChEBI ID of Ligand>


> <ChEMBL ID of Ligand>
CHEMBL3263614

> <DrugBank ID of Ligand>


> <IUPHAR_GRAC ID of Ligand>


> <KEGG ID of Ligand>


> <ZINC ID of Ligand>
ZINC13446728

> <Number of Protein Chains in Target (>1 implies a multichain complex)>
1

> <BindingDB Target Chain Sequence>
MAAQKNNAPKEYGADSITILEGLEAVRKRPGMYIGSTGERGLHHLIWEVVDNAVDEAMAGFATRVDVKIHADGSVEVRDDGRGIPVEMHATGMPTIDVVMTQLHAGGKFDGETYAVSGGLHGVGVSVVNALSTRLEATVLRDGYEWFQYYDRSVPGKLKQGGETKETGTTIRFWADPEIFETTDYNFETVARRLQEMAFLNKGLTIELTDERVTAEEVVDDVVKDTAEAPKTADEKAAEATGPSKVKHRVFHYPGGLVDYVKHINRTKTPIQQSIIDFDGKGPGHEVEIAMQWNAGYSESVHTFANTINTHEGGTHEEGFRAALTSVVNRYAKDKKLLKDKDPNLTGDDIREGLAAVISVKVAEPQFEGQTKTKLGNTEVKSFVQKICNEQLQHWFEANPAEAKTVVNKAVSSAQARIAARKARELVRRKSATDIGGLPGKLADCRSTDPSKSELYVVEGDSAGGSAKSGRDSMFQAILPLRGKIINVEKARIDRVLKNTEVQSIITALGTGIHDEFDISKLRYHKIVLMADADVDGQHISTLLLTLLFRFMKPLVENGHIFLAQPPLYKLKWQRSEPEFAYSDRERDGLLEAGRAAGKKINVDDGIQRYKGLGEMDAKELWETTMDPSVRVLRQVTLDDAAAADELFSILMGEDVEARRSFITRNAKDVRFLDV

> <PDB ID(s) of Target Chain>
4BAE

> <UniProt (SwissProt) Recommended Name of Target Chain>
DNA gyrase subunit B

> <UniProt (SwissProt) Entry Name of Target Chain>
GYRB_MYCSM

> <UniProt (SwissProt) Primary ID of Target Chain>
P0C559

> <UniProt (SwissProt) Secondary ID(s) of Target Chain>
P48355,Q59555

> <UniProt (SwissProt) Alternative ID(s) of Target Chain>


> <UniProt (TrEMBL) Submitted Name of Target Chain>


> <UniProt (TrEMBL) Entry Name of Target Chain>


> <UniProt (TrEMBL) Primary ID of Target Chain>


> <UniProt (TrEMBL) Secondary ID(s) of Target Chain>


> <UniProt (TrEMBL) Alternative ID(s) of Target Chain>


$$$$

  SciTegic02271514412D

 32 36  0  0  0  0            999 V2000
   10.3205  -11.8318    0.0000 C   0  0
    9.6233  -12.2727    0.0000 C   0  0
   10.3537  -12.6562    0.0000 C   0  0
   11.0864  -10.3715    0.0000 C   0  0  1  0  0  0
   10.2612  -10.4058    0.0000 O   0  0
    9.8804  -11.1336    0.0000 C   0  0
   11.1457  -11.7975    0.0000 C   0  0
   11.5309  -11.0650    0.0000 O   0  0
   11.8460   -8.9110    0.0000 C   0  0
   11.0220   -8.9485    0.0000 C   0  0
   10.6463   -9.6783    0.0000 C   0  0  1  0  0  0
   11.9106  -10.3336    0.0000 C   0  0
   12.2946   -9.6035    0.0000 N   0  0
    9.8221   -9.7157    0.0000 N   0  0
    9.3777   -9.0207    0.0000 C   0  0
    8.5536   -9.0581    0.0000 C   0  0
    9.7573   -8.2883    0.0000 O   0  0
   13.1186   -9.5660    0.0000 C   0  0
    8.0423   -8.4103    0.0000 C   0  0
    7.2700   -8.7007    0.0000 C   0  0
    7.3074   -9.5248    0.0000 C   0  0
    8.1028   -9.7438    0.0000 N   0  0
   13.6314  -10.2089    0.0000 N   0  0
   14.4035   -9.9185    0.0000 C   0  0
   14.3662   -9.0944    0.0000 C   0  0
   13.5708   -8.8754    0.0000 S   0  0
   15.0109   -8.5796    0.0000 C   0  0
   15.7790   -8.8807    0.0000 O   0  0
   14.8874   -7.7640    0.0000 O   0  0
    6.6627  -10.0395    0.0000 C   0  0
    8.2635   -7.6156    0.0000 Cl  0  0
    6.5813   -8.2465    0.0000 Cl  0  0
  2  1  1  0
  3  2  1  0
  1  3  1  0
  4  5  1  1
  4  8  1  0
  5  6  1  0
  6  1  1  0
  1  7  1  0
  7  8  1  0
  9 10  1  0
  9 13  1  0
 10 11  1  0
 11  4  1  0
  4 12  1  0
 12 13  1  0
 11 14  1  6
 14 15  1  0
 15 16  1  0
 15 17  2  0
 13 18  1  0
 16 19  2  0
 19 20  1  0
 20 21  2  0
 21 22  1  0
 22 16  1  0
 18 23  2  0
 23 24  1  0
 24 25  2  0
 25 26  1  0
 26 18  1  0
 25 27  1  0
 27 28  1  0
 27 29  2  0
 21 30  1  0
 19 31  1  0
 20 32  1  0
M  END
> <From> 
www.bindingDB.org

> <BindingDB Reactant_set_id>
50271340

> <Ligand InChI>
InChI=1S/C20H22Cl2N4O5S/c1-10-13(21)14(22)15(24-10)16(27)25-12-2-5-26(18-23-6-11(32-18)17(28)29)7-20(12)30-8-19(3-4-19)9-31-20/h6,12,24H,2-5,7-9H2,1H3,(H,25,27)(H,28,29)/t12-/m1/s1

> <Ligand InChI Key>
YJMXQLUTCMKCMW-GFCCVEGCSA-N

> <BindingDB MonomerID>
50046994

> <BindingDB Ligand Name>
CHEMBL3314547

> <Target Name Assigned by Curator or DataSource>
DNA Gyrase Subunit B

> <Target Source Organism According to Curator or DataSource>
Staphylococcus aureus

> <Ki (nM)>


> <IC50 (nM)>
<10.0

> <Kd (nM)>


> <EC50 (nM)>


> <kon (M-1-s-1)>


> <koff (s-1)>


> <pH>


> <Temp C>


> <Curation/DataSource>
ChEMBL

> <Article DOI>
10.1021/jm500462x

> <PMID>
24959892

> <PubChem AID>


> <Patent Number>


> <Authors>
Basarab, GS; Hill, PJ; Garner, CE; Hull, K; Green, O; Sherer, BA; Dangel, PB; Manchester, JI; Bist, S; Hauck, S; Zhou, F; Uria-Nickelsen, M; Illingworth, R; Alm, R; Rooney, M; Eakin, AE

> <Institution>
AstraZeneca

> <Link to Ligand in BindingDB>
http://www.bindingdb.org/bind/chemsearch/marvin/MolStructure.jsp?monomerid=50046994

> <Link to Ligand-Target Pair in BindingDB>
http://www.bindingdb.org/jsp/dbsearch/PrimarySearch_ki.jsp?energyterm=kJ/mole&tag=pol&polymerid=2626&target=DNA+Gyrase+Subunit+B&column=ki&startPg=0&Increment=50&submit=Search

> <Link to Ligand-Target Pair in BindingDB>
http://www.bindingdb.org/jsp/dbsearch/PrimarySearch_ki.jsp?energyterm=kJ/mole&tag=r21&monomerid=50046994&enzyme=DNA+Gyrase+Subunit+B&column=ki&startPg=0&Increment=50&submit=Search

> <Ligand HET ID in PDB>


> <PDB ID(s) for Ligand-Target Complex>


> <PubChem CID>
118707651

> <PubChem SID>
103977682

> <ChEBI ID of Ligand>


> <ChEMBL ID of Ligand>
CHEMBL427959

> <DrugBank ID of Ligand>


> <IUPHAR_GRAC ID of Ligand>


> <KEGG ID of Ligand>


> <ZINC ID of Ligand>
ZINC25962909

> <Number of Protein Chains in Target (>1 implies a multichain complex)>
1

> <BindingDB Target Chain Sequence>
MVTALSDVNNTDNYGAGQIQVLEGLEAVRKRPGMYIGSTSERGLHHLVWEIVDNSIDEALAGYANQIEVVIEKDNWIKVTDNGRGIPVDIQEKMGRPAVEVILTVLHAGGKFGGGGYKVSGGLHGVGSSVVNALSQDLEVYVHRNETIYHQAYKKGVPQFDLKEVGTTDKTGTVIRFKADGEIFTETTVYNYETLQQRIRELAFLNKGIQITLRDERDEENVREDSYHYEGGIKSYVELLNENKEPIHDEPIYIHQSKDDIEVEIAIQYNSGYATNLLTYANNIHTYEGGTHEDGFKRALTRVLNSYGLSSKIMKEEKDRLSGEDTREGMTAIISIKHGDPQFEGQTKTKLGNSEVRQVVDKLFSEHFERFLYENPQVARTVVEKGIMAARARVAAKKAREVTRRKSALDVASLPGKLADCSSKSPEECEIFLVEGDSAGGSTKSGRDSRTQAILPLRGKILNVEKARLDRILNNNEIRQMITAFGTGIGGDFDLAKARYHKIVIMTDADVDGAHIRTLLLTFFYRFMRPLIEAGYVYIAQPPLYKLTQGKQKYYVYNDRELDKLKSELNPTPKWSIARYKGLGEMNADQLWETTMNPEHRALLQVKLEDAIEADQTFEMLMGDVVENRRQFIEDNAVYANLDF

> <PDB ID(s) of Target Chain>


> <UniProt (SwissProt) Recommended Name of Target Chain>
DNA gyrase subunit B

> <UniProt (SwissProt) Entry Name of Target Chain>
GYRB_STAAU

> <UniProt (SwissProt) Primary ID of Target Chain>
P0A0K8

> <UniProt (SwissProt) Secondary ID(s) of Target Chain>
P20832

> <UniProt (SwissProt) Alternative ID(s) of Target Chain>


> <UniProt (TrEMBL) Submitted Name of Target Chain>


> <UniProt (TrEMBL) Entry Name of Target Chain>


> <UniProt (TrEMBL) Primary ID of Target Chain>


> <UniProt (TrEMBL) Secondary ID(s) of Target Chain>


> <UniProt (TrEMBL) Alternative ID(s) of Target Chain>


$$$$

  SciTegic02271514412D

 31 34  0  0  0  0            999 V2000
   10.3203  -11.8315    0.0000 C   0  0
   11.0861  -10.3713    0.0000 C   0  0  1  0  0  0
   10.2609  -10.4056    0.0000 O   0  0
    9.8802  -11.1333    0.0000 C   0  0
   11.1455  -11.7972    0.0000 C   0  0
   11.5306  -11.0647    0.0000 O   0  0
   11.8458   -8.9108    0.0000 C   0  0
   11.0217   -8.9483    0.0000 C   0  0
   10.6461   -9.6781    0.0000 C   0  0  1  0  0  0
   11.9104  -10.3333    0.0000 C   0  0
   12.2943   -9.6033    0.0000 N   0  0
    9.8219   -9.7155    0.0000 N   0  0
    9.3775   -9.0205    0.0000 C   0  0
    8.5534   -9.0579    0.0000 C   0  0
    9.7571   -8.2881    0.0000 O   0  0
   13.1183   -9.5658    0.0000 C   0  0
    8.0421   -8.4101    0.0000 C   0  0
    7.2698   -8.7005    0.0000 C   0  0
    7.3073   -9.5246    0.0000 C   0  0
    8.1026   -9.7436    0.0000 N   0  0
   13.6310  -10.2086    0.0000 N   0  0
   14.4032   -9.9183    0.0000 C   0  0
   14.3659   -9.0942    0.0000 C   0  0
   13.5705   -8.8752    0.0000 S   0  0
   15.0105   -8.5794    0.0000 C   0  0
   15.7787   -8.8805    0.0000 O   0  0
   14.8871   -7.7638    0.0000 O   0  0
    6.6626  -10.0393    0.0000 C   0  0
    8.2633   -7.6154    0.0000 Cl  0  0
    6.5811   -8.2463    0.0000 Cl  0  0
    9.9332  -12.5690    0.0000 C   0  0
  2  3  1  1
  2  6  1  0
  3  4  1  0
  4  1  1  0
  1  5  1  0
  5  6  1  0
  7  8  1  0
  7 11  1  0
  8  9  1  0
  9  2  1  0
  2 10  1  0
 10 11  1  0
  9 12  1  6
 12 13  1  0
 13 14  1  0
 13 15  2  0
 11 16  1  0
 14 17  2  0
 17 18  1  0
 18 19  2  0
 19 20  1  0
 20 14  1  0
 16 21  2  0
 21 22  1  0
 22 23  2  0
 23 24  1  0
 24 16  1  0
 23 25  1  0
 25 26  1  0
 25 27  2  0
 19 28  1  0
 17 29  1  0
 18 30  1  0
  1 31  2  0
M  END
> <From> 
www.bindingDB.org

> <BindingDB Reactant_set_id>
50271341

> <Ligand InChI>
InChI=1S/C19H20Cl2N4O5S/c1-9-6-29-19(30-7-9)8-25(18-22-5-11(31-18)17(27)28)4-3-12(19)24-16(26)15-14(21)13(20)10(2)23-15/h5,12,23H,1,3-4,6-8H2,2H3,(H,24,26)(H,27,28)/t12-/m1/s1

> <Ligand InChI Key>
AMAYLDGCOUJAIW-GFCCVEGCSA-N

> <BindingDB MonomerID>
50046998

> <BindingDB Ligand Name>
CHEMBL3314548

> <Target Name Assigned by Curator or DataSource>
DNA Gyrase Subunit B

> <Target Source Organism According to Curator or DataSource>
Staphylococcus aureus

> <Ki (nM)>


> <IC50 (nM)>
<10.0

> <Kd (nM)>


> <EC50 (nM)>


> <kon (M-1-s-1)>


> <koff (s-1)>


> <pH>


> <Temp C>


> <Curation/DataSource>
ChEMBL

> <Article DOI>
10.1021/jm500462x

> <PMID>
24959892

> <PubChem AID>


> <Patent Number>


> <Authors>
Basarab, GS; Hill, PJ; Garner, CE; Hull, K; Green, O; Sherer, BA; Dangel, PB; Manchester, JI; Bist, S; Hauck, S; Zhou, F; Uria-Nickelsen, M; Illingworth, R; Alm, R; Rooney, M; Eakin, AE

> <Institution>
AstraZeneca

> <Link to Ligand in BindingDB>
http://www.bindingdb.org/bind/chemsearch/marvin/MolStructure.jsp?monomerid=50046998

> <Link to Ligand-Target Pair in BindingDB>
http://www.bindingdb.org/jsp/dbsearch/PrimarySearch_ki.jsp?energyterm=kJ/mole&tag=pol&polymerid=2626&target=DNA+Gyrase+Subunit+B&column=ki&startPg=0&Increment=50&submit=Search

> <Link to Ligand-Target Pair in BindingDB>
http://www.bindingdb.org/jsp/dbsearch/PrimarySearch_ki.jsp?energyterm=kJ/mole&tag=r21&monomerid=50046998&enzyme=DNA+Gyrase+Subunit+B&column=ki&startPg=0&Increment=50&submit=Search

> <Ligand HET ID in PDB>


> <PDB ID(s) for Ligand-Target Complex>


> <PubChem CID>
118707652

> <PubChem SID>
103977686

> <ChEBI ID of Ligand>


> <ChEMBL ID of Ligand>
CHEMBL14742

> <DrugBank ID of Ligand>


> <IUPHAR_GRAC ID of Ligand>


> <KEGG ID of Ligand>


> <ZINC ID of Ligand>


> <Number of Protein Chains in Target (>1 implies a multichain complex)>
1

> <BindingDB Target Chain Sequence>
MVTALSDVNNTDNYGAGQIQVLEGLEAVRKRPGMYIGSTSERGLHHLVWEIVDNSIDEALAGYANQIEVVIEKDNWIKVTDNGRGIPVDIQEKMGRPAVEVILTVLHAGGKFGGGGYKVSGGLHGVGSSVVNALSQDLEVYVHRNETIYHQAYKKGVPQFDLKEVGTTDKTGTVIRFKADGEIFTETTVYNYETLQQRIRELAFLNKGIQITLRDERDEENVREDSYHYEGGIKSYVELLNENKEPIHDEPIYIHQSKDDIEVEIAIQYNSGYATNLLTYANNIHTYEGGTHEDGFKRALTRVLNSYGLSSKIMKEEKDRLSGEDTREGMTAIISIKHGDPQFEGQTKTKLGNSEVRQVVDKLFSEHFERFLYENPQVARTVVEKGIMAARARVAAKKAREVTRRKSALDVASLPGKLADCSSKSPEECEIFLVEGDSAGGSTKSGRDSRTQAILPLRGKILNVEKARLDRILNNNEIRQMITAFGTGIGGDFDLAKARYHKIVIMTDADVDGAHIRTLLLTFFYRFMRPLIEAGYVYIAQPPLYKLTQGKQKYYVYNDRELDKLKSELNPTPKWSIARYKGLGEMNADQLWETTMNPEHRALLQVKLEDAIEADQTFEMLMGDVVENRRQFIEDNAVYANLDF

> <PDB ID(s) of Target Chain>


> <UniProt (SwissProt) Recommended Name of Target Chain>
DNA gyrase subunit B

> <UniProt (SwissProt) Entry Name of Target Chain>
GYRB_STAAU

> <UniProt (SwissProt) Primary ID of Target Chain>
P0A0K8

> <UniProt (SwissProt) Secondary ID(s) of Target Chain>
P20832

> <UniProt (SwissProt) Alternative ID(s) of Target Chain>


> <UniProt (TrEMBL) Submitted Name of Target Chain>


> <UniProt (TrEMBL) Entry Name of Target Chain>


> <UniProt (TrEMBL) Primary ID of Target Chain>


> <UniProt (TrEMBL) Secondary ID(s) of Target Chain>


> <UniProt (TrEMBL) Alternative ID(s) of Target Chain>


$$$$

  Mrv0541 03271611212D          

 28 30  0  0  0  0            999 V2000
   11.4257   -3.8989    0.0000 C   0  0  0  0  0  0  0  0  0  0  0  0
   10.6015   -3.9363    0.0000 C   0  0  0  0  0  0  0  0  0  0  0  0
   10.2258   -4.6661    0.0000 C   0  0  2  0  0  0  0  0  0  0  0  0
   10.6661   -5.3589    0.0000 C   0  0  2  0  0  0  0  0  0  0  0  0
   11.4902   -5.3215    0.0000 C   0  0  0  0  0  0  0  0  0  0  0  0
   11.8742   -4.5913    0.0000 N   0  0  0  0  0  0  0  0  0  0  0  0
    9.4017   -4.7035    0.0000 N   0  0  0  0  0  0  0  0  0  0  0  0
    8.9572   -4.0086    0.0000 C   0  0  0  0  0  0  0  0  0  0  0  0
    8.1331   -4.0459    0.0000 C   0  0  0  0  0  0  0  0  0  0  0  0
    9.3369   -3.2760    0.0000 O   0  0  0  0  0  0  0  0  0  0  0  0
   12.6984   -4.5538    0.0000 C   0  0  0  0  0  0  0  0  0  0  0  0
    7.6217   -3.3982    0.0000 C   0  0  0  0  0  0  0  0  0  0  0  0
    6.8495   -3.6884    0.0000 C   0  0  0  0  0  0  0  0  0  0  0  0
    6.8869   -4.5126    0.0000 C   0  0  0  0  0  0  0  0  0  0  0  0
    7.6823   -4.7316    0.0000 N   0  0  0  0  0  0  0  0  0  0  0  0
   13.2110   -5.1967    0.0000 N   0  0  0  0  0  0  0  0  0  0  0  0
   13.9833   -4.9065    0.0000 C   0  0  0  0  0  0  0  0  0  0  0  0
   13.9459   -4.0823    0.0000 C   0  0  0  0  0  0  0  0  0  0  0  0
   13.1505   -3.8633    0.0000 S   0  0  0  0  0  0  0  0  0  0  0  0
   14.5906   -3.5675    0.0000 C   0  0  0  0  0  0  0  0  0  0  0  0
   15.3588   -3.8684    0.0000 O   0  0  0  0  0  0  0  0  0  0  0  0
   14.4672   -2.7518    0.0000 O   0  0  0  0  0  0  0  0  0  0  0  0
    6.2422   -5.0274    0.0000 C   0  0  0  0  0  0  0  0  0  0  0  0
    7.8430   -2.6034    0.0000 Cl  0  0  0  0  0  0  0  0  0  0  0  0
    6.1607   -3.2343    0.0000 Cl  0  0  0  0  0  0  0  0  0  0  0  0
   10.2854   -6.0908    0.0000 O   0  0  0  0  0  0  0  0  0  0  0  0
    9.4611   -6.1270    0.0000 C   0  0  0  0  0  0  0  0  0  0  0  0
   14.6721   -5.3606    0.0000 C   0  0  0  0  0  0  0  0  0  0  0  0
  1  2  1  0  0  0  0
  1  6  1  0  0  0  0
  3  2  1  0  0  0  0
  3  4  1  0  0  0  0
  4  5  1  0  0  0  0
  5  6  1  0  0  0  0
  3  7  1  6  0  0  0
  7  8  1  0  0  0  0
  8  9  1  0  0  0  0
  8 10  2  0  0  0  0
  6 11  1  0  0  0  0
  9 12  4  0  0  0  0
 12 13  4  0  0  0  0
 13 14  4  0  0  0  0
 14 15  4  0  0  0  0
 15  9  4  0  0  0  0
 11 16  4  0  0  0  0
 16 17  4  0  0  0  0
 17 18  4  0  0  0  0
 18 19  4  0  0  0  0
 19 11  4  0  0  0  0
 18 20  1  0  0  0  0
 20 21  1  0  0  0  0
 20 22  2  0  0  0  0
 14 23  1  0  0  0  0
 12 24  1  0  0  0  0
 13 25  1  0  0  0  0
  4 26  1  6  0  0  0
 26 27  1  0  0  0  0
 17 28  1  0  0  0  0
M  STY  1   1 DAT
M  SAL   1  1  15
M  SDT   1 MRV_IMPLICIT_H                                        
M  SDD   1     0.0000    0.0000    DR    ALL  0       0  
M  SED   1 IMPL_H1
M  END
> <From> 
www.bindingDB.org

> <BindingDB Reactant_set_id>
50271342

> <Ligand InChI>
InChI=1S/C17H20Cl2N4O4S/c1-7-11(18)12(19)13(20-7)15(24)22-9-4-5-23(6-10(9)27-3)17-21-8(2)14(28-17)16(25)26/h9-10,20H,4-6H2,1-3H3,(H,22,24)(H,25,26)/t9-,10+/m1/s1

> <Ligand InChI Key>
ONJLYLNWDCXKKA-ZJUUUORDSA-N

> <BindingDB MonomerID>
50046999

> <BindingDB Ligand Name>
CHEMBL3314549

> <Target Name Assigned by Curator or DataSource>
DNA Gyrase Subunit B

> <Target Source Organism According to Curator or DataSource>
Staphylococcus aureus

> <Ki (nM)>


> <IC50 (nM)>
<10.0

> <Kd (nM)>


> <EC50 (nM)>


> <kon (M-1-s-1)>


> <koff (s-1)>


> <pH>


> <Temp C>


> <Curation/DataSource>
ChEMBL

> <Article DOI>
10.1021/jm500462x

> <PMID>
24959892

> <PubChem AID>


> <Patent Number>


> <Authors>
Basarab, GS; Hill, PJ; Garner, CE; Hull, K; Green, O; Sherer, BA; Dangel, PB; Manchester, JI; Bist, S; Hauck, S; Zhou, F; Uria-Nickelsen, M; Illingworth, R; Alm, R; Rooney, M; Eakin, AE

> <Institution>
AstraZeneca

> <Link to Ligand in BindingDB>
http://www.bindingdb.org/bind/chemsearch/marvin/MolStructure.jsp?monomerid=50046999

> <Link to Ligand-Target Pair in BindingDB>
http://www.bindingdb.org/jsp/dbsearch/PrimarySearch_ki.jsp?energyterm=kJ/mole&tag=pol&polymerid=2626&target=DNA+Gyrase+Subunit+B&column=ki&startPg=0&Increment=50&submit=Search

> <Link to Ligand-Target Pair in BindingDB>
http://www.bindingdb.org/jsp/dbsearch/PrimarySearch_ki.jsp?energyterm=kJ/mole&tag=r21&monomerid=50046999&enzyme=DNA+Gyrase+Subunit+B&column=ki&startPg=0&Increment=50&submit=Search

> <Ligand HET ID in PDB>


> <PDB ID(s) for Ligand-Target Complex>


> <PubChem CID>
11996130

> <PubChem SID>
103977687

> <ChEBI ID of Ligand>


> <ChEMBL ID of Ligand>


> <DrugBank ID of Ligand>


> <IUPHAR_GRAC ID of Ligand>


> <KEGG ID of Ligand>


> <ZINC ID of Ligand>


> <Number of Protein Chains in Target (>1 implies a multichain complex)>
1

> <BindingDB Target Chain Sequence>
MVTALSDVNNTDNYGAGQIQVLEGLEAVRKRPGMYIGSTSERGLHHLVWEIVDNSIDEALAGYANQIEVVIEKDNWIKVTDNGRGIPVDIQEKMGRPAVEVILTVLHAGGKFGGGGYKVSGGLHGVGSSVVNALSQDLEVYVHRNETIYHQAYKKGVPQFDLKEVGTTDKTGTVIRFKADGEIFTETTVYNYETLQQRIRELAFLNKGIQITLRDERDEENVREDSYHYEGGIKSYVELLNENKEPIHDEPIYIHQSKDDIEVEIAIQYNSGYATNLLTYANNIHTYEGGTHEDGFKRALTRVLNSYGLSSKIMKEEKDRLSGEDTREGMTAIISIKHGDPQFEGQTKTKLGNSEVRQVVDKLFSEHFERFLYENPQVARTVVEKGIMAARARVAAKKAREVTRRKSALDVASLPGKLADCSSKSPEECEIFLVEGDSAGGSTKSGRDSRTQAILPLRGKILNVEKARLDRILNNNEIRQMITAFGTGIGGDFDLAKARYHKIVIMTDADVDGAHIRTLLLTFFYRFMRPLIEAGYVYIAQPPLYKLTQGKQKYYVYNDRELDKLKSELNPTPKWSIARYKGLGEMNADQLWETTMNPEHRALLQVKLEDAIEADQTFEMLMGDVVENRRQFIEDNAVYANLDF

> <PDB ID(s) of Target Chain>


> <UniProt (SwissProt) Recommended Name of Target Chain>
DNA gyrase subunit B

> <UniProt (SwissProt) Entry Name of Target Chain>
GYRB_STAAU

> <UniProt (SwissProt) Primary ID of Target Chain>
P0A0K8

> <UniProt (SwissProt) Secondary ID(s) of Target Chain>
P20832

> <UniProt (SwissProt) Alternative ID(s) of Target Chain>


> <UniProt (TrEMBL) Submitted Name of Target Chain>


> <UniProt (TrEMBL) Entry Name of Target Chain>


> <UniProt (TrEMBL) Primary ID of Target Chain>


> <UniProt (TrEMBL) Secondary ID(s) of Target Chain>


> <UniProt (TrEMBL) Alternative ID(s) of Target Chain>


$$$$

  SciTegic02271514412D

 31 34  0  0  0  0            999 V2000
   13.9598   -7.3660    0.0000 C   0  0
   13.1356   -7.4034    0.0000 C   0  0
   12.7599   -8.1333    0.0000 C   0  0  2  0  0  0
   13.2001   -8.8261    0.0000 C   0  0  2  0  0  0
   14.0244   -8.7886    0.0000 C   0  0
   14.4083   -8.0584    0.0000 N   0  0
   11.9357   -8.1707    0.0000 N   0  0
   11.4912   -7.4756    0.0000 C   0  0
   10.6670   -7.5131    0.0000 C   0  0
   11.8709   -6.7431    0.0000 O   0  0
   15.2325   -8.0210    0.0000 C   0  0
   10.1556   -6.8652    0.0000 C   0  0
    9.3834   -7.1555    0.0000 C   0  0
    9.4207   -7.9798    0.0000 C   0  0
   10.2162   -8.1988    0.0000 N   0  0
   15.7453   -8.6638    0.0000 N   0  0
   15.6847   -7.3303    0.0000 S   0  0
    8.7760   -8.4945    0.0000 C   0  0
   10.3769   -6.0704    0.0000 Cl  0  0
    8.6945   -6.7013    0.0000 Cl  0  0
   12.8194   -9.5580    0.0000 O   0  0
   11.9951   -9.5943    0.0000 C   0  0
   16.4802   -7.5493    0.0000 C   0  0
   16.5149   -8.3696    0.0000 C   0  0
   17.2415   -8.7479    0.0000 C   0  0
   17.9339   -8.3070    0.0000 C   0  0
   17.8949   -7.4838    0.0000 C   0  0
   17.1679   -7.1092    0.0000 C   0  0
   17.1294   -6.2851    0.0000 C   0  0
   17.8239   -5.8396    0.0000 O   0  0
   16.3964   -5.9064    0.0000 O   0  0
  1  2  1  0
  1  6  1  0
  2  3  1  0
  3  4  1  0
  4  5  1  0
  5  6  1  0
  3  7  1  6
  7  8  1  0
  8  9  1  0
  8 10  2  0
  6 11  1  0
  9 12  2  0
 12 13  1  0
 13 14  2  0
 14 15  1  0
 15  9  1  0
 11 16  2  0
 16 24  1  0
 23 17  1  0
 17 11  1  0
 14 18  1  0
 12 19  1  0
 13 20  1  0
  4 21  1  6
 21 22  1  0
 23 24  2  0
 24 25  1  0
 25 26  2  0
 26 27  1  0
 27 28  2  0
 28 23  1  0
 28 29  1  0
 29 30  1  0
 29 31  2  0
M  END
> <From> 
www.bindingDB.org

> <BindingDB Reactant_set_id>
50271343

> <Ligand InChI>
InChI=1S/C20H20Cl2N4O4S/c1-9-14(21)15(22)16(23-9)18(27)24-11-6-7-26(8-13(11)30-2)20-25-12-5-3-4-10(19(28)29)17(12)31-20/h3-5,11,13,23H,6-8H2,1-2H3,(H,24,27)(H,28,29)/t11-,13+/m1/s1

> <Ligand InChI Key>
JWLOBYCHDYSGSJ-YPMHNXCESA-N

> <BindingDB MonomerID>
50047000

> <BindingDB Ligand Name>
CHEMBL3314550

> <Target Name Assigned by Curator or DataSource>
DNA Gyrase Subunit B

> <Target Source Organism According to Curator or DataSource>
Staphylococcus aureus

> <Ki (nM)>


> <IC50 (nM)>
<10.0

> <Kd (nM)>


> <EC50 (nM)>


> <kon (M-1-s-1)>


> <koff (s-1)>


> <pH>


> <Temp C>


> <Curation/DataSource>
ChEMBL

> <Article DOI>
10.1021/jm500462x

> <PMID>
24959892

> <PubChem AID>


> <Patent Number>


> <Authors>
Basarab, GS; Hill, PJ; Garner, CE; Hull, K; Green, O; Sherer, BA; Dangel, PB; Manchester, JI; Bist, S; Hauck, S; Zhou, F; Uria-Nickelsen, M; Illingworth, R; Alm, R; Rooney, M; Eakin, AE

> <Institution>
AstraZeneca

> <Link to Ligand in BindingDB>
http://www.bindingdb.org/bind/chemsearch/marvin/MolStructure.jsp?monomerid=50047000

> <Link to Ligand-Target Pair in BindingDB>
http://www.bindingdb.org/jsp/dbsearch/PrimarySearch_ki.jsp?energyterm=kJ/mole&tag=pol&polymerid=2626&target=DNA+Gyrase+Subunit+B&column=ki&startPg=0&Increment=50&submit=Search

> <Link to Ligand-Target Pair in BindingDB>
http://www.bindingdb.org/jsp/dbsearch/PrimarySearch_ki.jsp?energyterm=kJ/mole&tag=r21&monomerid=50047000&enzyme=DNA+Gyrase+Subunit+B&column=ki&startPg=0&Increment=50&submit=Search

> <Ligand HET ID in PDB>


> <PDB ID(s) for Ligand-Target Complex>


> <PubChem CID>
68519747

> <PubChem SID>
103977688

> <ChEBI ID of Ligand>
48565

> <ChEMBL ID of Ligand>
CHEMBL430347

> <DrugBank ID of Ligand>


> <IUPHAR_GRAC ID of Ligand>


> <KEGG ID of Ligand>


> <ZINC ID of Ligand>
ZINC03861548

> <Number of Protein Chains in Target (>1 implies a multichain complex)>
1

> <BindingDB Target Chain Sequence>
MVTALSDVNNTDNYGAGQIQVLEGLEAVRKRPGMYIGSTSERGLHHLVWEIVDNSIDEALAGYANQIEVVIEKDNWIKVTDNGRGIPVDIQEKMGRPAVEVILTVLHAGGKFGGGGYKVSGGLHGVGSSVVNALSQDLEVYVHRNETIYHQAYKKGVPQFDLKEVGTTDKTGTVIRFKADGEIFTETTVYNYETLQQRIRELAFLNKGIQITLRDERDEENVREDSYHYEGGIKSYVELLNENKEPIHDEPIYIHQSKDDIEVEIAIQYNSGYATNLLTYANNIHTYEGGTHEDGFKRALTRVLNSYGLSSKIMKEEKDRLSGEDTREGMTAIISIKHGDPQFEGQTKTKLGNSEVRQVVDKLFSEHFERFLYENPQVARTVVEKGIMAARARVAAKKAREVTRRKSALDVASLPGKLADCSSKSPEECEIFLVEGDSAGGSTKSGRDSRTQAILPLRGKILNVEKARLDRILNNNEIRQMITAFGTGIGGDFDLAKARYHKIVIMTDADVDGAHIRTLLLTFFYRFMRPLIEAGYVYIAQPPLYKLTQGKQKYYVYNDRELDKLKSELNPTPKWSIARYKGLGEMNADQLWETTMNPEHRALLQVKLEDAIEADQTFEMLMGDVVENRRQFIEDNAVYANLDF

> <PDB ID(s) of Target Chain>


> <UniProt (SwissProt) Recommended Name of Target Chain>
DNA gyrase subunit B

> <UniProt (SwissProt) Entry Name of Target Chain>
GYRB_STAAU

> <UniProt (SwissProt) Primary ID of Target Chain>
P0A0K8

> <UniProt (SwissProt) Secondary ID(s) of Target Chain>
P20832

> <UniProt (SwissProt) Alternative ID(s) of Target Chain>


> <UniProt (TrEMBL) Submitted Name of Target Chain>


> <UniProt (TrEMBL) Entry Name of Target Chain>


> <UniProt (TrEMBL) Primary ID of Target Chain>


> <UniProt (TrEMBL) Secondary ID(s) of Target Chain>


> <UniProt (TrEMBL) Alternative ID(s) of Target Chain>


$$$$

  SciTegic02271514412D

 30 32  0  0  0  0            999 V2000
    7.8338   -3.0863    0.0000 C   0  0
    7.0096   -3.1237    0.0000 C   0  0
    6.6340   -3.8535    0.0000 C   0  0  2  0  0  0
    7.0742   -4.5462    0.0000 C   0  0  2  0  0  0
    7.8984   -4.5089    0.0000 C   0  0
    8.2823   -3.7787    0.0000 N   0  0
    5.8099   -3.8909    0.0000 N   0  0
    5.3654   -3.1960    0.0000 C   0  0
    4.5413   -3.2333    0.0000 C   0  0
    5.7450   -2.4635    0.0000 O   0  0
    9.1064   -3.7412    0.0000 C   0  0
    4.0300   -2.5856    0.0000 C   0  0
    3.2577   -2.8759    0.0000 C   0  0
    3.2951   -3.7000    0.0000 C   0  0
    4.0905   -3.9190    0.0000 N   0  0
    9.6191   -4.3841    0.0000 N   0  0
   10.3913   -4.0939    0.0000 C   0  0
   10.3540   -3.2697    0.0000 C   0  0
    9.5586   -3.0507    0.0000 S   0  0
   10.9987   -2.7549    0.0000 C   0  0
   11.7667   -3.0559    0.0000 O   0  0
   10.8752   -1.9392    0.0000 O   0  0
    2.6504   -4.2148    0.0000 C   0  0
    4.2511   -1.7908    0.0000 Cl  0  0
    2.5690   -2.4217    0.0000 Cl  0  0
    6.6935   -5.2781    0.0000 O   0  0
    5.8693   -5.3144    0.0000 C   0  0
   11.0801   -4.5479    0.0000 C   0  0
   11.0312   -5.3715    0.0000 F   0  0
   11.8177   -4.1786    0.0000 F   0  0
  1  2  1  0
  1  6  1  0
  2  3  1  0
  3  4  1  0
  4  5  1  0
  5  6  1  0
  3  7  1  6
  7  8  1  0
  8  9  1  0
  8 10  2  0
  6 11  1  0
  9 12  2  0
 12 13  1  0
 13 14  2  0
 14 15  1  0
 15  9  1  0
 11 16  2  0
 16 17  1  0
 17 18  2  0
 18 19  1  0
 19 11  1  0
 18 20  1  0
 20 21  1  0
 20 22  2  0
 14 23  1  0
 12 24  1  0
 13 25  1  0
  4 26  1  6
 26 27  1  0
 17 28  1  0
 28 29  1  0
 28 30  1  0
M  END
> <From> 
www.bindingDB.org

> <BindingDB Reactant_set_id>
50271344

> <Ligand InChI>
InChI=1S/C17H18Cl2F2N4O4S/c1-6-9(18)10(19)11(22-6)15(26)23-7-3-4-25(5-8(7)29-2)17-24-12(14(20)21)13(30-17)16(27)28/h7-8,14,22H,3-5H2,1-2H3,(H,23,26)(H,27,28)/t7-,8+/m1/s1

> <Ligand InChI Key>
BNHQSOOAELATAR-SFYZADRCSA-N

> <BindingDB MonomerID>
50047002

> <BindingDB Ligand Name>
CHEMBL3314551

> <Target Name Assigned by Curator or DataSource>
DNA Gyrase Subunit B

> <Target Source Organism According to Curator or DataSource>
Staphylococcus aureus

> <Ki (nM)>


> <IC50 (nM)>
<10.0

> <Kd (nM)>


> <EC50 (nM)>


> <kon (M-1-s-1)>


> <koff (s-1)>


> <pH>


> <Temp C>


> <Curation/DataSource>
ChEMBL

> <Article DOI>
10.1021/jm500462x

> <PMID>
24959892

> <PubChem AID>


> <Patent Number>


> <Authors>
Basarab, GS; Hill, PJ; Garner, CE; Hull, K; Green, O; Sherer, BA; Dangel, PB; Manchester, JI; Bist, S; Hauck, S; Zhou, F; Uria-Nickelsen, M; Illingworth, R; Alm, R; Rooney, M; Eakin, AE

> <Institution>
AstraZeneca

> <Link to Ligand in BindingDB>
http://www.bindingdb.org/bind/chemsearch/marvin/MolStructure.jsp?monomerid=50047002

> <Link to Ligand-Target Pair in BindingDB>
http://www.bindingdb.org/jsp/dbsearch/PrimarySearch_ki.jsp?energyterm=kJ/mole&tag=pol&polymerid=2626&target=DNA+Gyrase+Subunit+B&column=ki&startPg=0&Increment=50&submit=Search

> <Link to Ligand-Target Pair in BindingDB>
http://www.bindingdb.org/jsp/dbsearch/PrimarySearch_ki.jsp?energyterm=kJ/mole&tag=r21&monomerid=50047002&enzyme=DNA+Gyrase+Subunit+B&column=ki&startPg=0&Increment=50&submit=Search

> <Ligand HET ID in PDB>


> <PDB ID(s) for Ligand-Target Complex>


> <PubChem CID>
89699279

> <PubChem SID>
103977690

> <ChEBI ID of Ligand>


> <ChEMBL ID of Ligand>
CHEMBL15134

> <DrugBank ID of Ligand>


> <IUPHAR_GRAC ID of Ligand>


> <KEGG ID of Ligand>


> <ZINC ID of Ligand>
ZINC03872079

> <Number of Protein Chains in Target (>1 implies a multichain complex)>
1

> <BindingDB Target Chain Sequence>
MVTALSDVNNTDNYGAGQIQVLEGLEAVRKRPGMYIGSTSERGLHHLVWEIVDNSIDEALAGYANQIEVVIEKDNWIKVTDNGRGIPVDIQEKMGRPAVEVILTVLHAGGKFGGGGYKVSGGLHGVGSSVVNALSQDLEVYVHRNETIYHQAYKKGVPQFDLKEVGTTDKTGTVIRFKADGEIFTETTVYNYETLQQRIRELAFLNKGIQITLRDERDEENVREDSYHYEGGIKSYVELLNENKEPIHDEPIYIHQSKDDIEVEIAIQYNSGYATNLLTYANNIHTYEGGTHEDGFKRALTRVLNSYGLSSKIMKEEKDRLSGEDTREGMTAIISIKHGDPQFEGQTKTKLGNSEVRQVVDKLFSEHFERFLYENPQVARTVVEKGIMAARARVAAKKAREVTRRKSALDVASLPGKLADCSSKSPEECEIFLVEGDSAGGSTKSGRDSRTQAILPLRGKILNVEKARLDRILNNNEIRQMITAFGTGIGGDFDLAKARYHKIVIMTDADVDGAHIRTLLLTFFYRFMRPLIEAGYVYIAQPPLYKLTQGKQKYYVYNDRELDKLKSELNPTPKWSIARYKGLGEMNADQLWETTMNPEHRALLQVKLEDAIEADQTFEMLMGDVVENRRQFIEDNAVYANLDF

> <PDB ID(s) of Target Chain>


> <UniProt (SwissProt) Recommended Name of Target Chain>
DNA gyrase subunit B

> <UniProt (SwissProt) Entry Name of Target Chain>
GYRB_STAAU

> <UniProt (SwissProt) Primary ID of Target Chain>
P0A0K8

> <UniProt (SwissProt) Secondary ID(s) of Target Chain>
P20832

> <UniProt (SwissProt) Alternative ID(s) of Target Chain>


> <UniProt (TrEMBL) Submitted Name of Target Chain>


> <UniProt (TrEMBL) Entry Name of Target Chain>


> <UniProt (TrEMBL) Primary ID of Target Chain>


> <UniProt (TrEMBL) Secondary ID(s) of Target Chain>


> <UniProt (TrEMBL) Alternative ID(s) of Target Chain>


$$$$

  SciTegic02271514412D

 30 32  0  0  0  0            999 V2000
    7.8337   -3.0863    0.0000 C   0  0
    7.0095   -3.1237    0.0000 C   0  0
    6.6340   -3.8534    0.0000 C   0  0  2  0  0  0
    7.0741   -4.5462    0.0000 C   0  0  2  0  0  0
    7.8983   -4.5088    0.0000 C   0  0
    8.2822   -3.7786    0.0000 N   0  0
    5.8098   -3.8909    0.0000 N   0  0
    5.3653   -3.1959    0.0000 C   0  0
    4.5412   -3.2333    0.0000 C   0  0
    5.7450   -2.4634    0.0000 O   0  0
    9.1063   -3.7412    0.0000 C   0  0
    4.0299   -2.5856    0.0000 C   0  0
    3.2576   -2.8758    0.0000 C   0  0
    3.2951   -3.7000    0.0000 C   0  0
    4.0905   -3.9190    0.0000 N   0  0
    9.6190   -4.3841    0.0000 N   0  0
   10.3912   -4.0938    0.0000 C   0  0
   10.3539   -3.2696    0.0000 C   0  0
    9.5585   -3.0507    0.0000 S   0  0
   10.9985   -2.7549    0.0000 C   0  0
   11.7666   -3.0558    0.0000 O   0  0
   10.8751   -1.9392    0.0000 O   0  0
    2.6504   -4.2148    0.0000 C   0  0
    4.2511   -1.7908    0.0000 Cl  0  0
    2.5689   -2.4216    0.0000 Cl  0  0
    6.6934   -5.2781    0.0000 O   0  0
    5.8693   -5.3143    0.0000 C   0  0
   11.0800   -4.5479    0.0000 C   0  0
   11.0310   -5.3715    0.0000 C   0  0
   11.8176   -4.1785    0.0000 O   0  0
  1  2  1  0
  1  6  1  0
  2  3  1  0
  3  4  1  0
  4  5  1  0
  5  6  1  0
  3  7  1  6
  7  8  1  0
  8  9  1  0
  8 10  2  0
  6 11  1  0
  9 12  2  0
 12 13  1  0
 13 14  2  0
 14 15  1  0
 15  9  1  0
 11 16  2  0
 16 17  1  0
 17 18  2  0
 18 19  1  0
 19 11  1  0
 18 20  1  0
 20 21  1  0
 20 22  2  0
 14 23  1  0
 12 24  1  0
 13 25  1  0
  4 26  1  6
 26 27  1  0
 17 28  1  0
 28 29  1  0
 28 30  2  0
M  END
> <From> 
www.bindingDB.org

> <BindingDB Reactant_set_id>
50271345

> <Ligand InChI>
InChI=1S/C18H20Cl2N4O5S/c1-7-11(19)12(20)14(21-7)16(26)22-9-4-5-24(6-10(9)29-3)18-23-13(8(2)25)15(30-18)17(27)28/h9-10,21H,4-6H2,1-3H3,(H,22,26)(H,27,28)/t9-,10+/m1/s1

> <Ligand InChI Key>
QDSQOXKGDFZPBF-ZJUUUORDSA-N

> <BindingDB MonomerID>
50047007

> <BindingDB Ligand Name>
CHEMBL3314552

> <Target Name Assigned by Curator or DataSource>
DNA Gyrase Subunit B

> <Target Source Organism According to Curator or DataSource>
Staphylococcus aureus

> <Ki (nM)>


> <IC50 (nM)>
<10.0

> <Kd (nM)>


> <EC50 (nM)>


> <kon (M-1-s-1)>


> <koff (s-1)>


> <pH>


> <Temp C>


> <Curation/DataSource>
ChEMBL

> <Article DOI>
10.1021/jm500462x

> <PMID>
24959892

> <PubChem AID>


> <Patent Number>


> <Authors>
Basarab, GS; Hill, PJ; Garner, CE; Hull, K; Green, O; Sherer, BA; Dangel, PB; Manchester, JI; Bist, S; Hauck, S; Zhou, F; Uria-Nickelsen, M; Illingworth, R; Alm, R; Rooney, M; Eakin, AE

> <Institution>
AstraZeneca

> <Link to Ligand in BindingDB>
http://www.bindingdb.org/bind/chemsearch/marvin/MolStructure.jsp?monomerid=50047007

> <Link to Ligand-Target Pair in BindingDB>
http://www.bindingdb.org/jsp/dbsearch/PrimarySearch_ki.jsp?energyterm=kJ/mole&tag=pol&polymerid=2626&target=DNA+Gyrase+Subunit+B&column=ki&startPg=0&Increment=50&submit=Search

> <Link to Ligand-Target Pair in BindingDB>
http://www.bindingdb.org/jsp/dbsearch/PrimarySearch_ki.jsp?energyterm=kJ/mole&tag=r21&monomerid=50047007&enzyme=DNA+Gyrase+Subunit+B&column=ki&startPg=0&Increment=50&submit=Search

> <Ligand HET ID in PDB>


> <PDB ID(s) for Ligand-Target Complex>


> <PubChem CID>
11996132

> <PubChem SID>
103977695

> <ChEBI ID of Ligand>


> <ChEMBL ID of Ligand>


> <DrugBank ID of Ligand>


> <IUPHAR_GRAC ID of Ligand>


> <KEGG ID of Ligand>


> <ZINC ID of Ligand>
ZINC03872852

> <Number of Protein Chains in Target (>1 implies a multichain complex)>
1

> <BindingDB Target Chain Sequence>
MVTALSDVNNTDNYGAGQIQVLEGLEAVRKRPGMYIGSTSERGLHHLVWEIVDNSIDEALAGYANQIEVVIEKDNWIKVTDNGRGIPVDIQEKMGRPAVEVILTVLHAGGKFGGGGYKVSGGLHGVGSSVVNALSQDLEVYVHRNETIYHQAYKKGVPQFDLKEVGTTDKTGTVIRFKADGEIFTETTVYNYETLQQRIRELAFLNKGIQITLRDERDEENVREDSYHYEGGIKSYVELLNENKEPIHDEPIYIHQSKDDIEVEIAIQYNSGYATNLLTYANNIHTYEGGTHEDGFKRALTRVLNSYGLSSKIMKEEKDRLSGEDTREGMTAIISIKHGDPQFEGQTKTKLGNSEVRQVVDKLFSEHFERFLYENPQVARTVVEKGIMAARARVAAKKAREVTRRKSALDVASLPGKLADCSSKSPEECEIFLVEGDSAGGSTKSGRDSRTQAILPLRGKILNVEKARLDRILNNNEIRQMITAFGTGIGGDFDLAKARYHKIVIMTDADVDGAHIRTLLLTFFYRFMRPLIEAGYVYIAQPPLYKLTQGKQKYYVYNDRELDKLKSELNPTPKWSIARYKGLGEMNADQLWETTMNPEHRALLQVKLEDAIEADQTFEMLMGDVVENRRQFIEDNAVYANLDF

> <PDB ID(s) of Target Chain>


> <UniProt (SwissProt) Recommended Name of Target Chain>
DNA gyrase subunit B

> <UniProt (SwissProt) Entry Name of Target Chain>
GYRB_STAAU

> <UniProt (SwissProt) Primary ID of Target Chain>
P0A0K8

> <UniProt (SwissProt) Secondary ID(s) of Target Chain>
P20832

> <UniProt (SwissProt) Alternative ID(s) of Target Chain>


> <UniProt (TrEMBL) Submitted Name of Target Chain>


> <UniProt (TrEMBL) Entry Name of Target Chain>


> <UniProt (TrEMBL) Primary ID of Target Chain>


> <UniProt (TrEMBL) Secondary ID(s) of Target Chain>


> <UniProt (TrEMBL) Alternative ID(s) of Target Chain>


$$$$

  SciTegic02271514412D

 31 33  0  0  0  0            999 V2000
    7.8338   -3.0863    0.0000 C   0  0
    7.0096   -3.1237    0.0000 C   0  0
    6.6340   -3.8535    0.0000 C   0  0  2  0  0  0
    7.0742   -4.5462    0.0000 C   0  0  2  0  0  0
    7.8984   -4.5089    0.0000 C   0  0
    8.2823   -3.7787    0.0000 N   0  0
    5.8099   -3.8909    0.0000 N   0  0
    5.3654   -3.1960    0.0000 C   0  0
    4.5413   -3.2333    0.0000 C   0  0
    5.7450   -2.4635    0.0000 O   0  0
    9.1064   -3.7412    0.0000 C   0  0
    4.0300   -2.5856    0.0000 C   0  0
    3.2577   -2.8759    0.0000 C   0  0
    3.2951   -3.7000    0.0000 C   0  0
    4.0905   -3.9190    0.0000 N   0  0
    9.6191   -4.3841    0.0000 N   0  0
   10.3913   -4.0939    0.0000 C   0  0
   10.3540   -3.2697    0.0000 C   0  0
    9.5586   -3.0507    0.0000 S   0  0
   10.9987   -2.7549    0.0000 C   0  0
   11.7667   -3.0559    0.0000 O   0  0
   10.8752   -1.9392    0.0000 O   0  0
    2.6504   -4.2148    0.0000 C   0  0
    4.2511   -1.7908    0.0000 Cl  0  0
    2.5690   -2.4217    0.0000 Cl  0  0
    6.6935   -5.2781    0.0000 O   0  0
    5.8693   -5.3144    0.0000 C   0  0
   11.0801   -4.5479    0.0000 C   0  0
   11.0312   -5.3715    0.0000 N   0  0
   11.8177   -4.1786    0.0000 O   0  0
   11.7264   -5.8299    0.0000 C   0  0
  1  2  1  0
  1  6  1  0
  2  3  1  0
  3  4  1  0
  4  5  1  0
  5  6  1  0
  3  7  1  6
  7  8  1  0
  8  9  1  0
  8 10  2  0
  6 11  1  0
  9 12  2  0
 12 13  1  0
 13 14  2  0
 14 15  1  0
 15  9  1  0
 11 16  2  0
 16 17  1  0
 17 18  2  0
 18 19  1  0
 19 11  1  0
 18 20  1  0
 20 21  1  0
 20 22  2  0
 14 23  1  0
 12 24  1  0
 13 25  1  0
  4 26  1  6
 26 27  1  0
 17 28  1  0
 28 29  1  0
 28 30  2  0
 29 31  1  0
M  END
> <From> 
www.bindingDB.org

> <BindingDB Reactant_set_id>
50271349

> <Ligand InChI>
InChI=1S/C18H21Cl2N5O5S/c1-7-10(19)11(20)12(22-7)16(27)23-8-4-5-25(6-9(8)30-3)18-24-13(15(26)21-2)14(31-18)17(28)29/h8-9,22H,4-6H2,1-3H3,(H,21,26)(H,23,27)(H,28,29)/t8-,9+/m1/s1

> <Ligand InChI Key>
UCOIDXSDRFCYNR-BDAKNGLRSA-N

> <BindingDB MonomerID>
50047008

> <BindingDB Ligand Name>
CHEMBL3314553

> <Target Name Assigned by Curator or DataSource>
DNA Gyrase Subunit B

> <Target Source Organism According to Curator or DataSource>
Staphylococcus aureus

> <Ki (nM)>


> <IC50 (nM)>
<10.0

> <Kd (nM)>


> <EC50 (nM)>


> <kon (M-1-s-1)>


> <koff (s-1)>


> <pH>


> <Temp C>


> <Curation/DataSource>
ChEMBL

> <Article DOI>
10.1021/jm500462x

> <PMID>
24959892

> <PubChem AID>


> <Patent Number>


> <Authors>
Basarab, GS; Hill, PJ; Garner, CE; Hull, K; Green, O; Sherer, BA; Dangel, PB; Manchester, JI; Bist, S; Hauck, S; Zhou, F; Uria-Nickelsen, M; Illingworth, R; Alm, R; Rooney, M; Eakin, AE

> <Institution>
AstraZeneca

> <Link to Ligand in BindingDB>
http://www.bindingdb.org/bind/chemsearch/marvin/MolStructure.jsp?monomerid=50047008

> <Link to Ligand-Target Pair in BindingDB>
http://www.bindingdb.org/jsp/dbsearch/PrimarySearch_ki.jsp?energyterm=kJ/mole&tag=pol&polymerid=2626&target=DNA+Gyrase+Subunit+B&column=ki&startPg=0&Increment=50&submit=Search

> <Link to Ligand-Target Pair in BindingDB>
http://www.bindingdb.org/jsp/dbsearch/PrimarySearch_ki.jsp?energyterm=kJ/mole&tag=r21&monomerid=50047008&enzyme=DNA+Gyrase+Subunit+B&column=ki&startPg=0&Increment=50&submit=Search

> <Ligand HET ID in PDB>


> <PDB ID(s) for Ligand-Target Complex>


> <PubChem CID>
11995991

> <PubChem SID>
103977696

> <ChEBI ID of Ligand>


> <ChEMBL ID of Ligand>
CHEMBL280238

> <DrugBank ID of Ligand>


> <IUPHAR_GRAC ID of Ligand>


> <KEGG ID of Ligand>


> <ZINC ID of Ligand>
ZINC40639879

> <Number of Protein Chains in Target (>1 implies a multichain complex)>
1

> <BindingDB Target Chain Sequence>
MVTALSDVNNTDNYGAGQIQVLEGLEAVRKRPGMYIGSTSERGLHHLVWEIVDNSIDEALAGYANQIEVVIEKDNWIKVTDNGRGIPVDIQEKMGRPAVEVILTVLHAGGKFGGGGYKVSGGLHGVGSSVVNALSQDLEVYVHRNETIYHQAYKKGVPQFDLKEVGTTDKTGTVIRFKADGEIFTETTVYNYETLQQRIRELAFLNKGIQITLRDERDEENVREDSYHYEGGIKSYVELLNENKEPIHDEPIYIHQSKDDIEVEIAIQYNSGYATNLLTYANNIHTYEGGTHEDGFKRALTRVLNSYGLSSKIMKEEKDRLSGEDTREGMTAIISIKHGDPQFEGQTKTKLGNSEVRQVVDKLFSEHFERFLYENPQVARTVVEKGIMAARARVAAKKAREVTRRKSALDVASLPGKLADCSSKSPEECEIFLVEGDSAGGSTKSGRDSRTQAILPLRGKILNVEKARLDRILNNNEIRQMITAFGTGIGGDFDLAKARYHKIVIMTDADVDGAHIRTLLLTFFYRFMRPLIEAGYVYIAQPPLYKLTQGKQKYYVYNDRELDKLKSELNPTPKWSIARYKGLGEMNADQLWETTMNPEHRALLQVKLEDAIEADQTFEMLMGDVVENRRQFIEDNAVYANLDF

> <PDB ID(s) of Target Chain>


> <UniProt (SwissProt) Recommended Name of Target Chain>
DNA gyrase subunit B

> <UniProt (SwissProt) Entry Name of Target Chain>
GYRB_STAAU

> <UniProt (SwissProt) Primary ID of Target Chain>
P0A0K8

> <UniProt (SwissProt) Secondary ID(s) of Target Chain>
P20832

> <UniProt (SwissProt) Alternative ID(s) of Target Chain>


> <UniProt (TrEMBL) Submitted Name of Target Chain>


> <UniProt (TrEMBL) Entry Name of Target Chain>


> <UniProt (TrEMBL) Primary ID of Target Chain>


> <UniProt (TrEMBL) Secondary ID(s) of Target Chain>


> <UniProt (TrEMBL) Alternative ID(s) of Target Chain>


$$$$

  SciTegic02271514412D

 32 34  0  0  0  0            999 V2000
    7.8337   -3.0863    0.0000 C   0  0
    7.0096   -3.1237    0.0000 C   0  0
    6.6340   -3.8535    0.0000 C   0  0  2  0  0  0
    7.0742   -4.5462    0.0000 C   0  0  2  0  0  0
    7.8983   -4.5089    0.0000 C   0  0
    8.2823   -3.7787    0.0000 N   0  0
    5.8098   -3.8909    0.0000 N   0  0
    5.3653   -3.1960    0.0000 C   0  0
    4.5413   -3.2333    0.0000 C   0  0
    5.7450   -2.4634    0.0000 O   0  0
    9.1063   -3.7412    0.0000 C   0  0
    4.0299   -2.5856    0.0000 C   0  0
    3.2576   -2.8758    0.0000 C   0  0
    3.2951   -3.7000    0.0000 C   0  0
    4.0905   -3.9190    0.0000 N   0  0
    9.6191   -4.3841    0.0000 N   0  0
   10.3913   -4.0938    0.0000 C   0  0
   10.3539   -3.2697    0.0000 C   0  0
    9.5585   -3.0507    0.0000 S   0  0
   10.9986   -2.7549    0.0000 C   0  0
   11.7666   -3.0558    0.0000 O   0  0
   10.8751   -1.9392    0.0000 O   0  0
    2.6504   -4.2148    0.0000 C   0  0
    4.2511   -1.7908    0.0000 Cl  0  0
    2.5689   -2.4217    0.0000 Cl  0  0
    6.6935   -5.2781    0.0000 O   0  0
    5.8693   -5.3144    0.0000 C   0  0
   11.0801   -4.5479    0.0000 C   0  0
   11.0311   -5.3715    0.0000 N   0  0
   11.8176   -4.1785    0.0000 O   0  0
   11.7264   -5.8299    0.0000 C   0  0
   10.2864   -5.7444    0.0000 C   0  0
  1  2  1  0
  1  6  1  0
  2  3  1  0
  3  4  1  0
  4  5  1  0
  5  6  1  0
  3  7  1  6
  7  8  1  0
  8  9  1  0
  8 10  2  0
  6 11  1  0
  9 12  2  0
 12 13  1  0
 13 14  2  0
 14 15  1  0
 15  9  1  0
 11 16  2  0
 16 17  1  0
 17 18  2  0
 18 19  1  0
 19 11  1  0
 18 20  1  0
 20 21  1  0
 20 22  2  0
 14 23  1  0
 12 24  1  0
 13 25  1  0
  4 26  1  6
 26 27  1  0
 17 28  1  0
 28 29  1  0
 28 30  2  0
 29 31  1  0
 29 32  1  0
M  END
> <From> 
www.bindingDB.org

> <BindingDB Reactant_set_id>
50271350

> <Ligand InChI>
InChI=1S/C19H23Cl2N5O5S/c1-8-11(20)12(21)13(22-8)16(27)23-9-5-6-26(7-10(9)31-4)19-24-14(17(28)25(2)3)15(32-19)18(29)30/h9-10,22H,5-7H2,1-4H3,(H,23,27)(H,29,30)/t9-,10+/m1/s1

> <Ligand InChI Key>
DJMUEWMILFUPKL-ZJUUUORDSA-N

> <BindingDB MonomerID>
50047012

> <BindingDB Ligand Name>
CHEMBL3314554

> <Target Name Assigned by Curator or DataSource>
DNA Gyrase Subunit B

> <Target Source Organism According to Curator or DataSource>
Staphylococcus aureus

> <Ki (nM)>


> <IC50 (nM)>
<10.0

> <Kd (nM)>


> <EC50 (nM)>


> <kon (M-1-s-1)>


> <koff (s-1)>


> <pH>


> <Temp C>


> <Curation/DataSource>
ChEMBL

> <Article DOI>
10.1021/jm500462x

> <PMID>
24959892

> <PubChem AID>


> <Patent Number>


> <Authors>
Basarab, GS; Hill, PJ; Garner, CE; Hull, K; Green, O; Sherer, BA; Dangel, PB; Manchester, JI; Bist, S; Hauck, S; Zhou, F; Uria-Nickelsen, M; Illingworth, R; Alm, R; Rooney, M; Eakin, AE

> <Institution>
AstraZeneca

> <Link to Ligand in BindingDB>
http://www.bindingdb.org/bind/chemsearch/marvin/MolStructure.jsp?monomerid=50047012

> <Link to Ligand-Target Pair in BindingDB>
http://www.bindingdb.org/jsp/dbsearch/PrimarySearch_ki.jsp?energyterm=kJ/mole&tag=pol&polymerid=2626&target=DNA+Gyrase+Subunit+B&column=ki&startPg=0&Increment=50&submit=Search

> <Link to Ligand-Target Pair in BindingDB>
http://www.bindingdb.org/jsp/dbsearch/PrimarySearch_ki.jsp?energyterm=kJ/mole&tag=r21&monomerid=50047012&enzyme=DNA+Gyrase+Subunit+B&column=ki&startPg=0&Increment=50&submit=Search

> <Ligand HET ID in PDB>


> <PDB ID(s) for Ligand-Target Complex>


> <PubChem CID>
89699349

> <PubChem SID>
103977700

> <ChEBI ID of Ligand>


> <ChEMBL ID of Ligand>
CHEMBL14715

> <DrugBank ID of Ligand>


> <IUPHAR_GRAC ID of Ligand>


> <KEGG ID of Ligand>


> <ZINC ID of Ligand>
ZINC40466222

> <Number of Protein Chains in Target (>1 implies a multichain complex)>
1

> <BindingDB Target Chain Sequence>
MVTALSDVNNTDNYGAGQIQVLEGLEAVRKRPGMYIGSTSERGLHHLVWEIVDNSIDEALAGYANQIEVVIEKDNWIKVTDNGRGIPVDIQEKMGRPAVEVILTVLHAGGKFGGGGYKVSGGLHGVGSSVVNALSQDLEVYVHRNETIYHQAYKKGVPQFDLKEVGTTDKTGTVIRFKADGEIFTETTVYNYETLQQRIRELAFLNKGIQITLRDERDEENVREDSYHYEGGIKSYVELLNENKEPIHDEPIYIHQSKDDIEVEIAIQYNSGYATNLLTYANNIHTYEGGTHEDGFKRALTRVLNSYGLSSKIMKEEKDRLSGEDTREGMTAIISIKHGDPQFEGQTKTKLGNSEVRQVVDKLFSEHFERFLYENPQVARTVVEKGIMAARARVAAKKAREVTRRKSALDVASLPGKLADCSSKSPEECEIFLVEGDSAGGSTKSGRDSRTQAILPLRGKILNVEKARLDRILNNNEIRQMITAFGTGIGGDFDLAKARYHKIVIMTDADVDGAHIRTLLLTFFYRFMRPLIEAGYVYIAQPPLYKLTQGKQKYYVYNDRELDKLKSELNPTPKWSIARYKGLGEMNADQLWETTMNPEHRALLQVKLEDAIEADQTFEMLMGDVVENRRQFIEDNAVYANLDF

> <PDB ID(s) of Target Chain>


> <UniProt (SwissProt) Recommended Name of Target Chain>
DNA gyrase subunit B

> <UniProt (SwissProt) Entry Name of Target Chain>
GYRB_STAAU

> <UniProt (SwissProt) Primary ID of Target Chain>
P0A0K8

> <UniProt (SwissProt) Secondary ID(s) of Target Chain>
P20832

> <UniProt (SwissProt) Alternative ID(s) of Target Chain>


> <UniProt (TrEMBL) Submitted Name of Target Chain>


> <UniProt (TrEMBL) Entry Name of Target Chain>


> <UniProt (TrEMBL) Primary ID of Target Chain>


> <UniProt (TrEMBL) Secondary ID(s) of Target Chain>


> <UniProt (TrEMBL) Alternative ID(s) of Target Chain>


$$$$

  SciTegic02271514412D

 35 38  0  0  0  0            999 V2000
    7.8336   -3.0863    0.0000 C   0  0
    7.0094   -3.1236    0.0000 C   0  0
    6.6339   -3.8534    0.0000 C   0  0  2  0  0  0
    7.0740   -4.5461    0.0000 C   0  0  2  0  0  0
    7.8982   -4.5088    0.0000 C   0  0
    8.2821   -3.7786    0.0000 N   0  0
    5.8097   -3.8908    0.0000 N   0  0
    5.3652   -3.1959    0.0000 C   0  0
    4.5412   -3.2332    0.0000 C   0  0
    5.7449   -2.4634    0.0000 O   0  0
    9.1062   -3.7411    0.0000 C   0  0
    4.0299   -2.5855    0.0000 C   0  0
    3.2576   -2.8758    0.0000 C   0  0
    3.2950   -3.6999    0.0000 C   0  0
    4.0904   -3.9189    0.0000 N   0  0
    9.6189   -4.3840    0.0000 N   0  0
   10.3911   -4.0938    0.0000 C   0  0
   10.3537   -3.2696    0.0000 C   0  0
    9.5583   -3.0506    0.0000 S   0  0
   10.9984   -2.7548    0.0000 C   0  0
   11.7664   -3.0558    0.0000 O   0  0
   10.8749   -1.9392    0.0000 O   0  0
    2.6504   -4.2147    0.0000 C   0  0
    4.2510   -1.7908    0.0000 Cl  0  0
    2.5689   -2.4216    0.0000 Cl  0  0
    6.6933   -5.2780    0.0000 O   0  0
    5.8692   -5.3142    0.0000 C   0  0
   11.0798   -4.5478    0.0000 C   0  0
   11.0309   -5.3714    0.0000 N   0  0
   11.8174   -4.1785    0.0000 O   0  0
   10.2862   -5.7443    0.0000 C   0  0
   10.2368   -6.5756    0.0000 C   0  0
   10.9321   -7.0341    0.0000 O   0  0
   11.6768   -6.6612    0.0000 C   0  0
   11.7261   -5.8298    0.0000 C   0  0
  1  2  1  0
  1  6  1  0
  2  3  1  0
  3  4  1  0
  4  5  1  0
  5  6  1  0
  3  7  1  6
  7  8  1  0
  8  9  1  0
  8 10  2  0
  6 11  1  0
  9 12  2  0
 12 13  1  0
 13 14  2  0
 14 15  1  0
 15  9  1  0
 11 16  2  0
 16 17  1  0
 17 18  2  0
 18 19  1  0
 19 11  1  0
 18 20  1  0
 20 21  1  0
 20 22  2  0
 14 23  1  0
 12 24  1  0
 13 25  1  0
  4 26  1  6
 26 27  1  0
 17 28  1  0
 28 29  1  0
 28 30  2  0
 29 31  1  0
 29 35  1  0
 31 32  1  0
 32 33  1  0
 33 34  1  0
 34 35  1  0
M  END
> <From> 
www.bindingDB.org

> <BindingDB Reactant_set_id>
50271351

> <Ligand InChI>
InChI=1S/C21H25Cl2N5O6S/c1-10-13(22)14(23)15(24-10)18(29)25-11-3-4-28(9-12(11)33-2)21-26-16(17(35-21)20(31)32)19(30)27-5-7-34-8-6-27/h11-12,24H,3-9H2,1-2H3,(H,25,29)(H,31,32)/t11-,12+/m1/s1

> <Ligand InChI Key>
UELDKLPZUZRZKF-NEPJUHHUSA-N

> <BindingDB MonomerID>
50047139

> <BindingDB Ligand Name>
CHEMBL3314555

> <Target Name Assigned by Curator or DataSource>
DNA Gyrase Subunit B

> <Target Source Organism According to Curator or DataSource>
Staphylococcus aureus

> <Ki (nM)>


> <IC50 (nM)>
<10.0

> <Kd (nM)>


> <EC50 (nM)>


> <kon (M-1-s-1)>


> <koff (s-1)>


> <pH>


> <Temp C>


> <Curation/DataSource>
ChEMBL

> <Article DOI>
10.1021/jm500462x

> <PMID>
24959892

> <PubChem AID>


> <Patent Number>


> <Authors>
Basarab, GS; Hill, PJ; Garner, CE; Hull, K; Green, O; Sherer, BA; Dangel, PB; Manchester, JI; Bist, S; Hauck, S; Zhou, F; Uria-Nickelsen, M; Illingworth, R; Alm, R; Rooney, M; Eakin, AE

> <Institution>
AstraZeneca

> <Link to Ligand in BindingDB>
http://www.bindingdb.org/bind/chemsearch/marvin/MolStructure.jsp?monomerid=50047139

> <Link to Ligand-Target Pair in BindingDB>
http://www.bindingdb.org/jsp/dbsearch/PrimarySearch_ki.jsp?energyterm=kJ/mole&tag=pol&polymerid=2626&target=DNA+Gyrase+Subunit+B&column=ki&startPg=0&Increment=50&submit=Search

> <Link to Ligand-Target Pair in BindingDB>
http://www.bindingdb.org/jsp/dbsearch/PrimarySearch_ki.jsp?energyterm=kJ/mole&tag=r21&monomerid=50047139&enzyme=DNA+Gyrase+Subunit+B&column=ki&startPg=0&Increment=50&submit=Search

> <Ligand HET ID in PDB>


> <PDB ID(s) for Ligand-Target Complex>


> <PubChem CID>
89699322

> <PubChem SID>
103977827

> <ChEBI ID of Ligand>


> <ChEMBL ID of Ligand>
CHEMBL24417

> <DrugBank ID of Ligand>


> <IUPHAR_GRAC ID of Ligand>


> <KEGG ID of Ligand>


> <ZINC ID of Ligand>
ZINC13826521

> <Number of Protein Chains in Target (>1 implies a multichain complex)>
1

> <BindingDB Target Chain Sequence>
MVTALSDVNNTDNYGAGQIQVLEGLEAVRKRPGMYIGSTSERGLHHLVWEIVDNSIDEALAGYANQIEVVIEKDNWIKVTDNGRGIPVDIQEKMGRPAVEVILTVLHAGGKFGGGGYKVSGGLHGVGSSVVNALSQDLEVYVHRNETIYHQAYKKGVPQFDLKEVGTTDKTGTVIRFKADGEIFTETTVYNYETLQQRIRELAFLNKGIQITLRDERDEENVREDSYHYEGGIKSYVELLNENKEPIHDEPIYIHQSKDDIEVEIAIQYNSGYATNLLTYANNIHTYEGGTHEDGFKRALTRVLNSYGLSSKIMKEEKDRLSGEDTREGMTAIISIKHGDPQFEGQTKTKLGNSEVRQVVDKLFSEHFERFLYENPQVARTVVEKGIMAARARVAAKKAREVTRRKSALDVASLPGKLADCSSKSPEECEIFLVEGDSAGGSTKSGRDSRTQAILPLRGKILNVEKARLDRILNNNEIRQMITAFGTGIGGDFDLAKARYHKIVIMTDADVDGAHIRTLLLTFFYRFMRPLIEAGYVYIAQPPLYKLTQGKQKYYVYNDRELDKLKSELNPTPKWSIARYKGLGEMNADQLWETTMNPEHRALLQVKLEDAIEADQTFEMLMGDVVENRRQFIEDNAVYANLDF

> <PDB ID(s) of Target Chain>


> <UniProt (SwissProt) Recommended Name of Target Chain>
DNA gyrase subunit B

> <UniProt (SwissProt) Entry Name of Target Chain>
GYRB_STAAU

> <UniProt (SwissProt) Primary ID of Target Chain>
P0A0K8

> <UniProt (SwissProt) Secondary ID(s) of Target Chain>
P20832

> <UniProt (SwissProt) Alternative ID(s) of Target Chain>


> <UniProt (TrEMBL) Submitted Name of Target Chain>


> <UniProt (TrEMBL) Entry Name of Target Chain>


> <UniProt (TrEMBL) Primary ID of Target Chain>


> <UniProt (TrEMBL) Secondary ID(s) of Target Chain>


> <UniProt (TrEMBL) Alternative ID(s) of Target Chain>


$$$$

  SciTegic02271514412D

 29 31  0  0  0  0            999 V2000
    7.8338   -3.0863    0.0000 C   0  0
    7.0096   -3.1237    0.0000 C   0  0
    6.6340   -3.8535    0.0000 C   0  0  2  0  0  0
    7.0742   -4.5462    0.0000 C   0  0  2  0  0  0
    7.8984   -4.5089    0.0000 C   0  0
    8.2823   -3.7787    0.0000 N   0  0
    5.8099   -3.8909    0.0000 N   0  0
    5.3654   -3.1960    0.0000 C   0  0
    4.5413   -3.2333    0.0000 C   0  0
    5.7450   -2.4635    0.0000 O   0  0
    9.1064   -3.7412    0.0000 C   0  0
    4.0300   -2.5856    0.0000 C   0  0
    3.2577   -2.8759    0.0000 C   0  0
    3.2951   -3.7000    0.0000 C   0  0
    4.0905   -3.9190    0.0000 N   0  0
    9.6191   -4.3841    0.0000 N   0  0
   10.3913   -4.0939    0.0000 C   0  0
   10.3540   -3.2697    0.0000 C   0  0
    9.5586   -3.0507    0.0000 S   0  0
   10.9987   -2.7549    0.0000 C   0  0
   11.7667   -3.0559    0.0000 O   0  0
   10.8752   -1.9392    0.0000 O   0  0
    2.6504   -4.2148    0.0000 C   0  0
    4.2511   -1.7908    0.0000 Cl  0  0
    2.5690   -2.4217    0.0000 Cl  0  0
    6.6935   -5.2781    0.0000 O   0  0
    5.8693   -5.3144    0.0000 C   0  0
   11.0801   -4.5479    0.0000 C   0  0
   11.8177   -4.1786    0.0000 O   0  0
  1  2  1  0
  1  6  1  0
  2  3  1  0
  3  4  1  0
  4  5  1  0
  5  6  1  0
  3  7  1  6
  7  8  1  0
  8  9  1  0
  8 10  2  0
  6 11  1  0
  9 12  2  0
 12 13  1  0
 13 14  2  0
 14 15  1  0
 15  9  1  0
 11 16  2  0
 16 17  1  0
 17 18  2  0
 18 19  1  0
 19 11  1  0
 18 20  1  0
 20 21  1  0
 20 22  2  0
 14 23  1  0
 12 24  1  0
 13 25  1  0
  4 26  1  6
 26 27  1  0
 17 28  1  0
 28 29  1  0
M  END
> <From> 
www.bindingDB.org

> <BindingDB Reactant_set_id>
50271352

> <Ligand InChI>
InChI=1S/C17H20Cl2N4O5S/c1-7-11(18)12(19)13(20-7)15(25)21-8-3-4-23(5-10(8)28-2)17-22-9(6-24)14(29-17)16(26)27/h8,10,20,24H,3-6H2,1-2H3,(H,21,25)(H,26,27)/t8-,10+/m1/s1

> <Ligand InChI Key>
HQBAFTUVETZLEM-SCZZXKLOSA-N

> <BindingDB MonomerID>
50047140

> <BindingDB Ligand Name>
CHEMBL3314556

> <Target Name Assigned by Curator or DataSource>
DNA Gyrase Subunit B

> <Target Source Organism According to Curator or DataSource>
Staphylococcus aureus

> <Ki (nM)>


> <IC50 (nM)>
<10.0

> <Kd (nM)>


> <EC50 (nM)>


> <kon (M-1-s-1)>


> <koff (s-1)>


> <pH>


> <Temp C>


> <Curation/DataSource>
ChEMBL

> <Article DOI>
10.1021/jm500462x

> <PMID>
24959892

> <PubChem AID>


> <Patent Number>


> <Authors>
Basarab, GS; Hill, PJ; Garner, CE; Hull, K; Green, O; Sherer, BA; Dangel, PB; Manchester, JI; Bist, S; Hauck, S; Zhou, F; Uria-Nickelsen, M; Illingworth, R; Alm, R; Rooney, M; Eakin, AE

> <Institution>
AstraZeneca

> <Link to Ligand in BindingDB>
http://www.bindingdb.org/bind/chemsearch/marvin/MolStructure.jsp?monomerid=50047140

> <Link to Ligand-Target Pair in BindingDB>
http://www.bindingdb.org/jsp/dbsearch/PrimarySearch_ki.jsp?energyterm=kJ/mole&tag=pol&polymerid=2626&target=DNA+Gyrase+Subunit+B&column=ki&startPg=0&Increment=50&submit=Search

> <Link to Ligand-Target Pair in BindingDB>
http://www.bindingdb.org/jsp/dbsearch/PrimarySearch_ki.jsp?energyterm=kJ/mole&tag=r21&monomerid=50047140&enzyme=DNA+Gyrase+Subunit+B&column=ki&startPg=0&Increment=50&submit=Search

> <Ligand HET ID in PDB>


> <PDB ID(s) for Ligand-Target Complex>


> <PubChem CID>
89699327

> <PubChem SID>
103977828

> <ChEBI ID of Ligand>


> <ChEMBL ID of Ligand>
CHEMBL283761

> <DrugBank ID of Ligand>


> <IUPHAR_GRAC ID of Ligand>


> <KEGG ID of Ligand>


> <ZINC ID of Ligand>
ZINC13826504

> <Number of Protein Chains in Target (>1 implies a multichain complex)>
1

> <BindingDB Target Chain Sequence>
MVTALSDVNNTDNYGAGQIQVLEGLEAVRKRPGMYIGSTSERGLHHLVWEIVDNSIDEALAGYANQIEVVIEKDNWIKVTDNGRGIPVDIQEKMGRPAVEVILTVLHAGGKFGGGGYKVSGGLHGVGSSVVNALSQDLEVYVHRNETIYHQAYKKGVPQFDLKEVGTTDKTGTVIRFKADGEIFTETTVYNYETLQQRIRELAFLNKGIQITLRDERDEENVREDSYHYEGGIKSYVELLNENKEPIHDEPIYIHQSKDDIEVEIAIQYNSGYATNLLTYANNIHTYEGGTHEDGFKRALTRVLNSYGLSSKIMKEEKDRLSGEDTREGMTAIISIKHGDPQFEGQTKTKLGNSEVRQVVDKLFSEHFERFLYENPQVARTVVEKGIMAARARVAAKKAREVTRRKSALDVASLPGKLADCSSKSPEECEIFLVEGDSAGGSTKSGRDSRTQAILPLRGKILNVEKARLDRILNNNEIRQMITAFGTGIGGDFDLAKARYHKIVIMTDADVDGAHIRTLLLTFFYRFMRPLIEAGYVYIAQPPLYKLTQGKQKYYVYNDRELDKLKSELNPTPKWSIARYKGLGEMNADQLWETTMNPEHRALLQVKLEDAIEADQTFEMLMGDVVENRRQFIEDNAVYANLDF

> <PDB ID(s) of Target Chain>


> <UniProt (SwissProt) Recommended Name of Target Chain>
DNA gyrase subunit B

> <UniProt (SwissProt) Entry Name of Target Chain>
GYRB_STAAU

> <UniProt (SwissProt) Primary ID of Target Chain>
P0A0K8

> <UniProt (SwissProt) Secondary ID(s) of Target Chain>
P20832

> <UniProt (SwissProt) Alternative ID(s) of Target Chain>


> <UniProt (TrEMBL) Submitted Name of Target Chain>


> <UniProt (TrEMBL) Entry Name of Target Chain>


> <UniProt (TrEMBL) Primary ID of Target Chain>


> <UniProt (TrEMBL) Secondary ID(s) of Target Chain>


> <UniProt (TrEMBL) Alternative ID(s) of Target Chain>


$$$$

  SciTegic02271514412D

 30 32  0  0  0  0            999 V2000
    7.8337   -3.0863    0.0000 C   0  0
    7.0096   -3.1237    0.0000 C   0  0
    6.6340   -3.8535    0.0000 C   0  0  2  0  0  0
    7.0742   -4.5462    0.0000 C   0  0  2  0  0  0
    7.8983   -4.5089    0.0000 C   0  0
    8.2823   -3.7787    0.0000 N   0  0
    5.8098   -3.8909    0.0000 N   0  0
    5.3653   -3.1960    0.0000 C   0  0
    4.5413   -3.2333    0.0000 C   0  0
    5.7450   -2.4634    0.0000 O   0  0
    9.1063   -3.7412    0.0000 C   0  0
    4.0299   -2.5856    0.0000 C   0  0
    3.2576   -2.8758    0.0000 C   0  0
    3.2951   -3.7000    0.0000 C   0  0
    4.0905   -3.9190    0.0000 N   0  0
    9.6191   -4.3841    0.0000 N   0  0
   10.3913   -4.0938    0.0000 C   0  0
   10.3539   -3.2697    0.0000 C   0  0
    9.5585   -3.0507    0.0000 S   0  0
   10.9986   -2.7549    0.0000 C   0  0
   11.7666   -3.0558    0.0000 O   0  0
   10.8751   -1.9392    0.0000 O   0  0
    2.6504   -4.2148    0.0000 C   0  0
    4.2511   -1.7908    0.0000 Cl  0  0
    2.5689   -2.4217    0.0000 Cl  0  0
    6.6935   -5.2781    0.0000 O   0  0
    5.8693   -5.3144    0.0000 C   0  0
   11.0801   -4.5479    0.0000 C   0  0
   11.0311   -5.3715    0.0000 O   0  0
   11.7264   -5.8299    0.0000 C   0  0
  1  2  1  0
  1  6  1  0
  2  3  1  0
  3  4  1  0
  4  5  1  0
  5  6  1  0
  3  7  1  6
  7  8  1  0
  8  9  1  0
  8 10  2  0
  6 11  1  0
  9 12  2  0
 12 13  1  0
 13 14  2  0
 14 15  1  0
 15  9  1  0
 11 16  2  0
 16 17  1  0
 17 18  2  0
 18 19  1  0
 19 11  1  0
 18 20  1  0
 20 21  1  0
 20 22  2  0
 14 23  1  0
 12 24  1  0
 13 25  1  0
  4 26  1  6
 26 27  1  0
 17 28  1  0
 28 29  1  0
 29 30  1  0
M  END
> <From> 
www.bindingDB.org

> <BindingDB Reactant_set_id>
50271353

> <Ligand InChI>
InChI=1S/C18H22Cl2N4O5S/c1-8-12(19)13(20)14(21-8)16(25)22-9-4-5-24(6-11(9)29-3)18-23-10(7-28-2)15(30-18)17(26)27/h9,11,21H,4-7H2,1-3H3,(H,22,25)(H,26,27)/t9-,11+/m1/s1

> <Ligand InChI Key>
HXYNCTPULUXOER-KOLCDFICSA-N

> <BindingDB MonomerID>
50047148

> <BindingDB Ligand Name>
CHEMBL3314557

> <Target Name Assigned by Curator or DataSource>
DNA Gyrase Subunit B

> <Target Source Organism According to Curator or DataSource>
Staphylococcus aureus

> <Ki (nM)>


> <IC50 (nM)>
<10.0

> <Kd (nM)>


> <EC50 (nM)>


> <kon (M-1-s-1)>


> <koff (s-1)>


> <pH>


> <Temp C>


> <Curation/DataSource>
ChEMBL

> <Article DOI>
10.1021/jm500462x

> <PMID>
24959892

> <PubChem AID>


> <Patent Number>


> <Authors>
Basarab, GS; Hill, PJ; Garner, CE; Hull, K; Green, O; Sherer, BA; Dangel, PB; Manchester, JI; Bist, S; Hauck, S; Zhou, F; Uria-Nickelsen, M; Illingworth, R; Alm, R; Rooney, M; Eakin, AE

> <Institution>
AstraZeneca

> <Link to Ligand in BindingDB>
http://www.bindingdb.org/bind/chemsearch/marvin/MolStructure.jsp?monomerid=50047148

> <Link to Ligand-Target Pair in BindingDB>
http://www.bindingdb.org/jsp/dbsearch/PrimarySearch_ki.jsp?energyterm=kJ/mole&tag=pol&polymerid=2626&target=DNA+Gyrase+Subunit+B&column=ki&startPg=0&Increment=50&submit=Search

> <Link to Ligand-Target Pair in BindingDB>
http://www.bindingdb.org/jsp/dbsearch/PrimarySearch_ki.jsp?energyterm=kJ/mole&tag=r21&monomerid=50047148&enzyme=DNA+Gyrase+Subunit+B&column=ki&startPg=0&Increment=50&submit=Search

> <Ligand HET ID in PDB>


> <PDB ID(s) for Ligand-Target Complex>


> <PubChem CID>
68517356

> <PubChem SID>
103977836

> <ChEBI ID of Ligand>


> <ChEMBL ID of Ligand>
CHEMBL282456

> <DrugBank ID of Ligand>


> <IUPHAR_GRAC ID of Ligand>


> <KEGG ID of Ligand>


> <ZINC ID of Ligand>
ZINC27549753

> <Number of Protein Chains in Target (>1 implies a multichain complex)>
1

> <BindingDB Target Chain Sequence>
MVTALSDVNNTDNYGAGQIQVLEGLEAVRKRPGMYIGSTSERGLHHLVWEIVDNSIDEALAGYANQIEVVIEKDNWIKVTDNGRGIPVDIQEKMGRPAVEVILTVLHAGGKFGGGGYKVSGGLHGVGSSVVNALSQDLEVYVHRNETIYHQAYKKGVPQFDLKEVGTTDKTGTVIRFKADGEIFTETTVYNYETLQQRIRELAFLNKGIQITLRDERDEENVREDSYHYEGGIKSYVELLNENKEPIHDEPIYIHQSKDDIEVEIAIQYNSGYATNLLTYANNIHTYEGGTHEDGFKRALTRVLNSYGLSSKIMKEEKDRLSGEDTREGMTAIISIKHGDPQFEGQTKTKLGNSEVRQVVDKLFSEHFERFLYENPQVARTVVEKGIMAARARVAAKKAREVTRRKSALDVASLPGKLADCSSKSPEECEIFLVEGDSAGGSTKSGRDSRTQAILPLRGKILNVEKARLDRILNNNEIRQMITAFGTGIGGDFDLAKARYHKIVIMTDADVDGAHIRTLLLTFFYRFMRPLIEAGYVYIAQPPLYKLTQGKQKYYVYNDRELDKLKSELNPTPKWSIARYKGLGEMNADQLWETTMNPEHRALLQVKLEDAIEADQTFEMLMGDVVENRRQFIEDNAVYANLDF

> <PDB ID(s) of Target Chain>


> <UniProt (SwissProt) Recommended Name of Target Chain>
DNA gyrase subunit B

> <UniProt (SwissProt) Entry Name of Target Chain>
GYRB_STAAU

> <UniProt (SwissProt) Primary ID of Target Chain>
P0A0K8

> <UniProt (SwissProt) Secondary ID(s) of Target Chain>
P20832

> <UniProt (SwissProt) Alternative ID(s) of Target Chain>


> <UniProt (TrEMBL) Submitted Name of Target Chain>


> <UniProt (TrEMBL) Entry Name of Target Chain>


> <UniProt (TrEMBL) Primary ID of Target Chain>


> <UniProt (TrEMBL) Secondary ID(s) of Target Chain>


> <UniProt (TrEMBL) Alternative ID(s) of Target Chain>


$$$$

  SciTegic02271514412D

 34 37  0  0  0  0            999 V2000
    7.8336   -3.0863    0.0000 C   0  0
    7.0094   -3.1236    0.0000 C   0  0
    6.6339   -3.8534    0.0000 C   0  0  2  0  0  0
    7.0740   -4.5461    0.0000 C   0  0  2  0  0  0
    7.8982   -4.5088    0.0000 C   0  0
    8.2821   -3.7786    0.0000 N   0  0
    5.8097   -3.8908    0.0000 N   0  0
    5.3652   -3.1959    0.0000 C   0  0
    4.5412   -3.2332    0.0000 C   0  0
    5.7449   -2.4634    0.0000 O   0  0
    9.1062   -3.7411    0.0000 C   0  0
    4.0299   -2.5855    0.0000 C   0  0
    3.2576   -2.8758    0.0000 C   0  0
    3.2950   -3.6999    0.0000 C   0  0
    4.0904   -3.9189    0.0000 N   0  0
    9.6189   -4.3840    0.0000 N   0  0
   10.3911   -4.0938    0.0000 C   0  0
   10.3537   -3.2696    0.0000 C   0  0
    9.5583   -3.0506    0.0000 S   0  0
   10.9984   -2.7548    0.0000 C   0  0
   11.7664   -3.0558    0.0000 O   0  0
   10.8749   -1.9392    0.0000 O   0  0
    2.6504   -4.2147    0.0000 C   0  0
    4.2510   -1.7908    0.0000 Cl  0  0
    2.5689   -2.4216    0.0000 Cl  0  0
    6.6933   -5.2780    0.0000 O   0  0
    5.8692   -5.3142    0.0000 C   0  0
   11.0798   -4.5478    0.0000 C   0  0
   11.0309   -5.3714    0.0000 N   0  0
   10.2862   -5.7443    0.0000 C   0  0
   10.2368   -6.5756    0.0000 C   0  0
   10.9321   -7.0341    0.0000 O   0  0
   11.6768   -6.6612    0.0000 C   0  0
   11.7261   -5.8298    0.0000 C   0  0
  1  2  1  0
  1  6  1  0
  2  3  1  0
  3  4  1  0
  4  5  1  0
  5  6  1  0
  3  7  1  6
  7  8  1  0
  8  9  1  0
  8 10  2  0
  6 11  1  0
  9 12  2  0
 12 13  1  0
 13 14  2  0
 14 15  1  0
 15  9  1  0
 11 16  2  0
 16 17  1  0
 17 18  2  0
 18 19  1  0
 19 11  1  0
 18 20  1  0
 20 21  1  0
 20 22  2  0
 14 23  1  0
 12 24  1  0
 13 25  1  0
  4 26  1  6
 26 27  1  0
 17 28  1  0
 28 29  1  0
 29 30  1  0
 29 34  1  0
 30 31  1  0
 31 32  1  0
 32 33  1  0
 33 34  1  0
M  END
> <From> 
www.bindingDB.org

> <BindingDB Reactant_set_id>
50271354

> <Ligand InChI>
InChI=1S/C21H27Cl2N5O5S/c1-11-15(22)16(23)17(24-11)19(29)25-12-3-4-28(10-14(12)32-2)21-26-13(18(34-21)20(30)31)9-27-5-7-33-8-6-27/h12,14,24H,3-10H2,1-2H3,(H,25,29)(H,30,31)/t12-,14+/m1/s1

> <Ligand InChI Key>
VDJNESCRGWJWLH-OCCSQVGLSA-N

> <BindingDB MonomerID>
50047152

> <BindingDB Ligand Name>
CHEMBL3314558

> <Target Name Assigned by Curator or DataSource>
DNA Gyrase Subunit B

> <Target Source Organism According to Curator or DataSource>
Staphylococcus aureus

> <Ki (nM)>


> <IC50 (nM)>
<10.0

> <Kd (nM)>


> <EC50 (nM)>


> <kon (M-1-s-1)>


> <koff (s-1)>


> <pH>


> <Temp C>


> <Curation/DataSource>
ChEMBL

> <Article DOI>
10.1021/jm500462x

> <PMID>
24959892

> <PubChem AID>


> <Patent Number>


> <Authors>
Basarab, GS; Hill, PJ; Garner, CE; Hull, K; Green, O; Sherer, BA; Dangel, PB; Manchester, JI; Bist, S; Hauck, S; Zhou, F; Uria-Nickelsen, M; Illingworth, R; Alm, R; Rooney, M; Eakin, AE

> <Institution>
AstraZeneca

> <Link to Ligand in BindingDB>
http://www.bindingdb.org/bind/chemsearch/marvin/MolStructure.jsp?monomerid=50047152

> <Link to Ligand-Target Pair in BindingDB>
http://www.bindingdb.org/jsp/dbsearch/PrimarySearch_ki.jsp?energyterm=kJ/mole&tag=pol&polymerid=2626&target=DNA+Gyrase+Subunit+B&column=ki&startPg=0&Increment=50&submit=Search

> <Link to Ligand-Target Pair in BindingDB>
http://www.bindingdb.org/jsp/dbsearch/PrimarySearch_ki.jsp?energyterm=kJ/mole&tag=r21&monomerid=50047152&enzyme=DNA+Gyrase+Subunit+B&column=ki&startPg=0&Increment=50&submit=Search

> <Ligand HET ID in PDB>


> <PDB ID(s) for Ligand-Target Complex>


> <PubChem CID>
89699260

> <PubChem SID>
103977840

> <ChEBI ID of Ligand>


> <ChEMBL ID of Ligand>
CHEMBL24076

> <DrugBank ID of Ligand>


> <IUPHAR_GRAC ID of Ligand>


> <KEGG ID of Ligand>


> <ZINC ID of Ligand>
ZINC13826909

> <Number of Protein Chains in Target (>1 implies a multichain complex)>
1

> <BindingDB Target Chain Sequence>
MVTALSDVNNTDNYGAGQIQVLEGLEAVRKRPGMYIGSTSERGLHHLVWEIVDNSIDEALAGYANQIEVVIEKDNWIKVTDNGRGIPVDIQEKMGRPAVEVILTVLHAGGKFGGGGYKVSGGLHGVGSSVVNALSQDLEVYVHRNETIYHQAYKKGVPQFDLKEVGTTDKTGTVIRFKADGEIFTETTVYNYETLQQRIRELAFLNKGIQITLRDERDEENVREDSYHYEGGIKSYVELLNENKEPIHDEPIYIHQSKDDIEVEIAIQYNSGYATNLLTYANNIHTYEGGTHEDGFKRALTRVLNSYGLSSKIMKEEKDRLSGEDTREGMTAIISIKHGDPQFEGQTKTKLGNSEVRQVVDKLFSEHFERFLYENPQVARTVVEKGIMAARARVAAKKAREVTRRKSALDVASLPGKLADCSSKSPEECEIFLVEGDSAGGSTKSGRDSRTQAILPLRGKILNVEKARLDRILNNNEIRQMITAFGTGIGGDFDLAKARYHKIVIMTDADVDGAHIRTLLLTFFYRFMRPLIEAGYVYIAQPPLYKLTQGKQKYYVYNDRELDKLKSELNPTPKWSIARYKGLGEMNADQLWETTMNPEHRALLQVKLEDAIEADQTFEMLMGDVVENRRQFIEDNAVYANLDF

> <PDB ID(s) of Target Chain>


> <UniProt (SwissProt) Recommended Name of Target Chain>
DNA gyrase subunit B

> <UniProt (SwissProt) Entry Name of Target Chain>
GYRB_STAAU

> <UniProt (SwissProt) Primary ID of Target Chain>
P0A0K8

> <UniProt (SwissProt) Secondary ID(s) of Target Chain>
P20832

> <UniProt (SwissProt) Alternative ID(s) of Target Chain>


> <UniProt (TrEMBL) Submitted Name of Target Chain>


> <UniProt (TrEMBL) Entry Name of Target Chain>


> <UniProt (TrEMBL) Primary ID of Target Chain>


> <UniProt (TrEMBL) Secondary ID(s) of Target Chain>


> <UniProt (TrEMBL) Alternative ID(s) of Target Chain>


$$$$

  SciTegic02271514412D

 27 29  0  0  0  0            999 V2000
    7.8336   -3.0863    0.0000 C   0  0
    7.0094   -3.1236    0.0000 C   0  0
    6.6339   -3.8534    0.0000 C   0  0  2  0  0  0
    7.0740   -4.5461    0.0000 C   0  0  2  0  0  0
    7.8982   -4.5088    0.0000 C   0  0
    8.2821   -3.7786    0.0000 N   0  0
    5.8097   -3.8908    0.0000 N   0  0
    5.3652   -3.1959    0.0000 C   0  0
    4.5412   -3.2332    0.0000 C   0  0
    5.7449   -2.4634    0.0000 O   0  0
    9.1062   -3.7411    0.0000 C   0  0
    4.0299   -2.5855    0.0000 C   0  0
    3.2576   -2.8758    0.0000 C   0  0
    3.2950   -3.6999    0.0000 C   0  0
    4.0904   -3.9189    0.0000 N   0  0
    9.6189   -4.3840    0.0000 S   0  0
   10.3911   -4.0938    0.0000 C   0  0
   10.3537   -3.2696    0.0000 C   0  0
    9.5583   -3.0506    0.0000 N   0  0
   10.9984   -2.7548    0.0000 C   0  0
   11.7664   -3.0558    0.0000 O   0  0
   10.8749   -1.9392    0.0000 O   0  0
    2.6504   -4.2147    0.0000 C   0  0
    4.2510   -1.7908    0.0000 Cl  0  0
    2.5689   -2.4216    0.0000 Cl  0  0
    6.6933   -5.2780    0.0000 O   0  0
    5.8692   -5.3142    0.0000 C   0  0
  1  2  1  0
  1  6  1  0
  2  3  1  0
  3  4  1  0
  4  5  1  0
  5  6  1  0
  3  7  1  6
  7  8  1  0
  8  9  1  0
  8 10  2  0
  6 11  1  0
  9 12  2  0
 12 13  1  0
 13 14  2  0
 14 15  1  0
 15  9  1  0
 11 16  1  0
 16 17  1  0
 17 18  2  0
 18 19  1  0
 19 11  2  0
 18 20  1  0
 20 21  1  0
 20 22  2  0
 14 23  1  0
 12 24  1  0
 13 25  1  0
  4 26  1  6
 26 27  1  0
M  END
> <From> 
www.bindingDB.org

> <BindingDB Reactant_set_id>
50271355

> <Ligand InChI>
InChI=1S/C16H18Cl2N4O4S/c1-7-11(17)12(18)13(19-7)14(23)20-8-3-4-22(5-10(8)26-2)16-21-9(6-27-16)15(24)25/h6,8,10,19H,3-5H2,1-2H3,(H,20,23)(H,24,25)/t8-,10+/m1/s1

> <Ligand InChI Key>
LGSIJVVOEOQTJZ-SCZZXKLOSA-N

> <BindingDB MonomerID>
50047169

> <BindingDB Ligand Name>
CHEMBL3314559

> <Target Name Assigned by Curator or DataSource>
DNA Gyrase Subunit B

> <Target Source Organism According to Curator or DataSource>
Staphylococcus aureus

> <Ki (nM)>


> <IC50 (nM)>
<10.0

> <Kd (nM)>


> <EC50 (nM)>


> <kon (M-1-s-1)>


> <koff (s-1)>


> <pH>


> <Temp C>


> <Curation/DataSource>
ChEMBL

> <Article DOI>
10.1021/jm500462x

> <PMID>
24959892

> <PubChem AID>


> <Patent Number>


> <Authors>
Basarab, GS; Hill, PJ; Garner, CE; Hull, K; Green, O; Sherer, BA; Dangel, PB; Manchester, JI; Bist, S; Hauck, S; Zhou, F; Uria-Nickelsen, M; Illingworth, R; Alm, R; Rooney, M; Eakin, AE

> <Institution>
AstraZeneca

> <Link to Ligand in BindingDB>
http://www.bindingdb.org/bind/chemsearch/marvin/MolStructure.jsp?monomerid=50047169

> <Link to Ligand-Target Pair in BindingDB>
http://www.bindingdb.org/jsp/dbsearch/PrimarySearch_ki.jsp?energyterm=kJ/mole&tag=pol&polymerid=2626&target=DNA+Gyrase+Subunit+B&column=ki&startPg=0&Increment=50&submit=Search

> <Link to Ligand-Target Pair in BindingDB>
http://www.bindingdb.org/jsp/dbsearch/PrimarySearch_ki.jsp?energyterm=kJ/mole&tag=r21&monomerid=50047169&enzyme=DNA+Gyrase+Subunit+B&column=ki&startPg=0&Increment=50&submit=Search

> <Ligand HET ID in PDB>


> <PDB ID(s) for Ligand-Target Complex>


> <PubChem CID>
89698858

> <PubChem SID>
103977857

> <ChEBI ID of Ligand>


> <ChEMBL ID of Ligand>
CHEMBL280796

> <DrugBank ID of Ligand>


> <IUPHAR_GRAC ID of Ligand>


> <KEGG ID of Ligand>


> <ZINC ID of Ligand>
ZINC13826981

> <Number of Protein Chains in Target (>1 implies a multichain complex)>
1

> <BindingDB Target Chain Sequence>
MVTALSDVNNTDNYGAGQIQVLEGLEAVRKRPGMYIGSTSERGLHHLVWEIVDNSIDEALAGYANQIEVVIEKDNWIKVTDNGRGIPVDIQEKMGRPAVEVILTVLHAGGKFGGGGYKVSGGLHGVGSSVVNALSQDLEVYVHRNETIYHQAYKKGVPQFDLKEVGTTDKTGTVIRFKADGEIFTETTVYNYETLQQRIRELAFLNKGIQITLRDERDEENVREDSYHYEGGIKSYVELLNENKEPIHDEPIYIHQSKDDIEVEIAIQYNSGYATNLLTYANNIHTYEGGTHEDGFKRALTRVLNSYGLSSKIMKEEKDRLSGEDTREGMTAIISIKHGDPQFEGQTKTKLGNSEVRQVVDKLFSEHFERFLYENPQVARTVVEKGIMAARARVAAKKAREVTRRKSALDVASLPGKLADCSSKSPEECEIFLVEGDSAGGSTKSGRDSRTQAILPLRGKILNVEKARLDRILNNNEIRQMITAFGTGIGGDFDLAKARYHKIVIMTDADVDGAHIRTLLLTFFYRFMRPLIEAGYVYIAQPPLYKLTQGKQKYYVYNDRELDKLKSELNPTPKWSIARYKGLGEMNADQLWETTMNPEHRALLQVKLEDAIEADQTFEMLMGDVVENRRQFIEDNAVYANLDF

> <PDB ID(s) of Target Chain>


> <UniProt (SwissProt) Recommended Name of Target Chain>
DNA gyrase subunit B

> <UniProt (SwissProt) Entry Name of Target Chain>
GYRB_STAAU

> <UniProt (SwissProt) Primary ID of Target Chain>
P0A0K8

> <UniProt (SwissProt) Secondary ID(s) of Target Chain>
P20832

> <UniProt (SwissProt) Alternative ID(s) of Target Chain>


> <UniProt (TrEMBL) Submitted Name of Target Chain>


> <UniProt (TrEMBL) Entry Name of Target Chain>


> <UniProt (TrEMBL) Primary ID of Target Chain>


> <UniProt (TrEMBL) Secondary ID(s) of Target Chain>


> <UniProt (TrEMBL) Alternative ID(s) of Target Chain>


$$$$

  SciTegic02271514412D

 28 30  0  0  0  0            999 V2000
    7.8336   -3.0863    0.0000 C   0  0
    7.0094   -3.1236    0.0000 C   0  0
    6.6339   -3.8534    0.0000 C   0  0  2  0  0  0
    7.0740   -4.5461    0.0000 C   0  0  2  0  0  0
    7.8982   -4.5088    0.0000 C   0  0
    8.2821   -3.7786    0.0000 N   0  0
    5.8097   -3.8908    0.0000 N   0  0
    5.3652   -3.1959    0.0000 C   0  0
    4.5412   -3.2332    0.0000 C   0  0
    5.7449   -2.4634    0.0000 O   0  0
    9.1062   -3.7411    0.0000 C   0  0
    4.0299   -2.5855    0.0000 C   0  0
    3.2576   -2.8758    0.0000 C   0  0
    3.2950   -3.6999    0.0000 C   0  0
    4.0904   -3.9189    0.0000 N   0  0
    9.6189   -4.3840    0.0000 S   0  0
   10.3911   -4.0938    0.0000 C   0  0
   10.3537   -3.2696    0.0000 C   0  0
    9.5583   -3.0506    0.0000 N   0  0
   10.9984   -2.7548    0.0000 C   0  0
   11.7664   -3.0558    0.0000 O   0  0
   10.8749   -1.9392    0.0000 O   0  0
    2.6504   -4.2147    0.0000 C   0  0
    4.2510   -1.7908    0.0000 Cl  0  0
    2.5689   -2.4216    0.0000 Cl  0  0
    6.6933   -5.2780    0.0000 O   0  0
    5.8692   -5.3142    0.0000 C   0  0
   11.0798   -4.5480    0.0000 C   0  0
  1  2  1  0
  1  6  1  0
  2  3  1  0
  3  4  1  0
  4  5  1  0
  5  6  1  0
  3  7  1  6
  7  8  1  0
  8  9  1  0
  8 10  2  0
  6 11  1  0
  9 12  2  0
 12 13  1  0
 13 14  2  0
 14 15  1  0
 15  9  1  0
 11 16  1  0
 16 17  1  0
 17 18  2  0
 18 19  1  0
 19 11  2  0
 18 20  1  0
 20 21  1  0
 20 22  2  0
 14 23  1  0
 12 24  1  0
 13 25  1  0
  4 26  1  6
 26 27  1  0
 17 28  1  0
M  END
> <From> 
www.bindingDB.org

> <BindingDB Reactant_set_id>
50271356

> <Ligand InChI>
InChI=1S/C17H20Cl2N4O4S/c1-7-11(18)12(19)14(20-7)15(24)21-9-4-5-23(6-10(9)27-3)17-22-13(16(25)26)8(2)28-17/h9-10,20H,4-6H2,1-3H3,(H,21,24)(H,25,26)/t9-,10+/m1/s1

> <Ligand InChI Key>
WFMUMQMFBZBKLT-ZJUUUORDSA-N

> <BindingDB MonomerID>
50047177

> <BindingDB Ligand Name>
CHEMBL3314560

> <Target Name Assigned by Curator or DataSource>
DNA Gyrase Subunit B

> <Target Source Organism According to Curator or DataSource>
Staphylococcus aureus

> <Ki (nM)>


> <IC50 (nM)>
<10.0

> <Kd (nM)>


> <EC50 (nM)>


> <kon (M-1-s-1)>


> <koff (s-1)>


> <pH>


> <Temp C>


> <Curation/DataSource>
ChEMBL

> <Article DOI>
10.1021/jm500462x

> <PMID>
24959892

> <PubChem AID>


> <Patent Number>


> <Authors>
Basarab, GS; Hill, PJ; Garner, CE; Hull, K; Green, O; Sherer, BA; Dangel, PB; Manchester, JI; Bist, S; Hauck, S; Zhou, F; Uria-Nickelsen, M; Illingworth, R; Alm, R; Rooney, M; Eakin, AE

> <Institution>
AstraZeneca

> <Link to Ligand in BindingDB>
http://www.bindingdb.org/bind/chemsearch/marvin/MolStructure.jsp?monomerid=50047177

> <Link to Ligand-Target Pair in BindingDB>
http://www.bindingdb.org/jsp/dbsearch/PrimarySearch_ki.jsp?energyterm=kJ/mole&tag=pol&polymerid=2626&target=DNA+Gyrase+Subunit+B&column=ki&startPg=0&Increment=50&submit=Search

> <Link to Ligand-Target Pair in BindingDB>
http://www.bindingdb.org/jsp/dbsearch/PrimarySearch_ki.jsp?energyterm=kJ/mole&tag=r21&monomerid=50047177&enzyme=DNA+Gyrase+Subunit+B&column=ki&startPg=0&Increment=50&submit=Search

> <Ligand HET ID in PDB>


> <PDB ID(s) for Ligand-Target Complex>


> <PubChem CID>
59406936

> <PubChem SID>
103977865

> <ChEBI ID of Ligand>


> <ChEMBL ID of Ligand>
CHEMBL431309

> <DrugBank ID of Ligand>


> <IUPHAR_GRAC ID of Ligand>


> <KEGG ID of Ligand>


> <ZINC ID of Ligand>
ZINC13827023

> <Number of Protein Chains in Target (>1 implies a multichain complex)>
1

> <BindingDB Target Chain Sequence>
MVTALSDVNNTDNYGAGQIQVLEGLEAVRKRPGMYIGSTSERGLHHLVWEIVDNSIDEALAGYANQIEVVIEKDNWIKVTDNGRGIPVDIQEKMGRPAVEVILTVLHAGGKFGGGGYKVSGGLHGVGSSVVNALSQDLEVYVHRNETIYHQAYKKGVPQFDLKEVGTTDKTGTVIRFKADGEIFTETTVYNYETLQQRIRELAFLNKGIQITLRDERDEENVREDSYHYEGGIKSYVELLNENKEPIHDEPIYIHQSKDDIEVEIAIQYNSGYATNLLTYANNIHTYEGGTHEDGFKRALTRVLNSYGLSSKIMKEEKDRLSGEDTREGMTAIISIKHGDPQFEGQTKTKLGNSEVRQVVDKLFSEHFERFLYENPQVARTVVEKGIMAARARVAAKKAREVTRRKSALDVASLPGKLADCSSKSPEECEIFLVEGDSAGGSTKSGRDSRTQAILPLRGKILNVEKARLDRILNNNEIRQMITAFGTGIGGDFDLAKARYHKIVIMTDADVDGAHIRTLLLTFFYRFMRPLIEAGYVYIAQPPLYKLTQGKQKYYVYNDRELDKLKSELNPTPKWSIARYKGLGEMNADQLWETTMNPEHRALLQVKLEDAIEADQTFEMLMGDVVENRRQFIEDNAVYANLDF

> <PDB ID(s) of Target Chain>


> <UniProt (SwissProt) Recommended Name of Target Chain>
DNA gyrase subunit B

> <UniProt (SwissProt) Entry Name of Target Chain>
GYRB_STAAU

> <UniProt (SwissProt) Primary ID of Target Chain>
P0A0K8

> <UniProt (SwissProt) Secondary ID(s) of Target Chain>
P20832

> <UniProt (SwissProt) Alternative ID(s) of Target Chain>


> <UniProt (TrEMBL) Submitted Name of Target Chain>


> <UniProt (TrEMBL) Entry Name of Target Chain>


> <UniProt (TrEMBL) Primary ID of Target Chain>


> <UniProt (TrEMBL) Secondary ID(s) of Target Chain>


> <UniProt (TrEMBL) Alternative ID(s) of Target Chain>


$$$$

  SciTegic02271514412D

 30 32  0  0  0  0            999 V2000
    7.8336   -3.0863    0.0000 C   0  0
    7.0094   -3.1236    0.0000 C   0  0
    6.6339   -3.8534    0.0000 C   0  0  2  0  0  0
    7.0740   -4.5461    0.0000 C   0  0  2  0  0  0
    7.8982   -4.5088    0.0000 C   0  0
    8.2821   -3.7786    0.0000 N   0  0
    5.8097   -3.8908    0.0000 N   0  0
    5.3652   -3.1959    0.0000 C   0  0
    4.5412   -3.2332    0.0000 C   0  0
    5.7449   -2.4634    0.0000 O   0  0
    9.1062   -3.7411    0.0000 C   0  0
    4.0299   -2.5855    0.0000 C   0  0
    3.2576   -2.8758    0.0000 C   0  0
    3.2950   -3.6999    0.0000 C   0  0
    4.0904   -3.9189    0.0000 N   0  0
    9.6189   -4.3840    0.0000 S   0  0
   10.3911   -4.0938    0.0000 C   0  0
   10.3537   -3.2696    0.0000 C   0  0
    9.5583   -3.0506    0.0000 N   0  0
   10.9984   -2.7548    0.0000 C   0  0
   11.7664   -3.0558    0.0000 O   0  0
   10.8749   -1.9392    0.0000 O   0  0
    2.6504   -4.2147    0.0000 C   0  0
    4.2510   -1.7908    0.0000 Cl  0  0
    2.5689   -2.4216    0.0000 Cl  0  0
    6.6933   -5.2780    0.0000 O   0  0
    5.8692   -5.3142    0.0000 C   0  0
   11.0798   -4.5480    0.0000 C   0  0
   11.8175   -4.1786    0.0000 N   0  0
   11.0309   -5.3715    0.0000 O   0  0
  1  2  1  0
  1  6  1  0
  2  3  1  0
  3  4  1  0
  4  5  1  0
  5  6  1  0
  3  7  1  6
  7  8  1  0
  8  9  1  0
  8 10  2  0
  6 11  1  0
  9 12  2  0
 12 13  1  0
 13 14  2  0
 14 15  1  0
 15  9  1  0
 11 16  1  0
 16 17  1  0
 17 18  2  0
 18 19  1  0
 19 11  2  0
 18 20  1  0
 20 21  1  0
 20 22  2  0
 14 23  1  0
 12 24  1  0
 13 25  1  0
  4 26  1  6
 26 27  1  0
 17 28  1  0
 28 29  1  0
 28 30  2  0
M  END
> <From> 
www.bindingDB.org

> <BindingDB Reactant_set_id>
50271357

> <Ligand InChI>
InChI=1S/C17H19Cl2N5O5S/c1-6-9(18)10(19)11(21-6)15(26)22-7-3-4-24(5-8(7)29-2)17-23-12(16(27)28)13(30-17)14(20)25/h7-8,21H,3-5H2,1-2H3,(H2,20,25)(H,22,26)(H,27,28)/t7-,8+/m1/s1

> <Ligand InChI Key>
PFMLBVPPYCWNMM-SFYZADRCSA-N

> <BindingDB MonomerID>
50047188

> <BindingDB Ligand Name>
CHEMBL3314561

> <Target Name Assigned by Curator or DataSource>
DNA Gyrase Subunit B

> <Target Source Organism According to Curator or DataSource>
Staphylococcus aureus

> <Ki (nM)>


> <IC50 (nM)>
<10.0

> <Kd (nM)>


> <EC50 (nM)>


> <kon (M-1-s-1)>


> <koff (s-1)>


> <pH>


> <Temp C>


> <Curation/DataSource>
ChEMBL

> <Article DOI>
10.1021/jm500462x

> <PMID>
24959892

> <PubChem AID>


> <Patent Number>


> <Authors>
Basarab, GS; Hill, PJ; Garner, CE; Hull, K; Green, O; Sherer, BA; Dangel, PB; Manchester, JI; Bist, S; Hauck, S; Zhou, F; Uria-Nickelsen, M; Illingworth, R; Alm, R; Rooney, M; Eakin, AE

> <Institution>
AstraZeneca

> <Link to Ligand in BindingDB>
http://www.bindingdb.org/bind/chemsearch/marvin/MolStructure.jsp?monomerid=50047188

> <Link to Ligand-Target Pair in BindingDB>
http://www.bindingdb.org/jsp/dbsearch/PrimarySearch_ki.jsp?energyterm=kJ/mole&tag=pol&polymerid=2626&target=DNA+Gyrase+Subunit+B&column=ki&startPg=0&Increment=50&submit=Search

> <Link to Ligand-Target Pair in BindingDB>
http://www.bindingdb.org/jsp/dbsearch/PrimarySearch_ki.jsp?energyterm=kJ/mole&tag=r21&monomerid=50047188&enzyme=DNA+Gyrase+Subunit+B&column=ki&startPg=0&Increment=50&submit=Search

> <Ligand HET ID in PDB>


> <PDB ID(s) for Ligand-Target Complex>


> <PubChem CID>
68560980

> <PubChem SID>
103977876

> <ChEBI ID of Ligand>


> <ChEMBL ID of Ligand>
CHEMBL27318

> <DrugBank ID of Ligand>


> <IUPHAR_GRAC ID of Ligand>


> <KEGG ID of Ligand>


> <ZINC ID of Ligand>
ZINC13826967

> <Number of Protein Chains in Target (>1 implies a multichain complex)>
1

> <BindingDB Target Chain Sequence>
MVTALSDVNNTDNYGAGQIQVLEGLEAVRKRPGMYIGSTSERGLHHLVWEIVDNSIDEALAGYANQIEVVIEKDNWIKVTDNGRGIPVDIQEKMGRPAVEVILTVLHAGGKFGGGGYKVSGGLHGVGSSVVNALSQDLEVYVHRNETIYHQAYKKGVPQFDLKEVGTTDKTGTVIRFKADGEIFTETTVYNYETLQQRIRELAFLNKGIQITLRDERDEENVREDSYHYEGGIKSYVELLNENKEPIHDEPIYIHQSKDDIEVEIAIQYNSGYATNLLTYANNIHTYEGGTHEDGFKRALTRVLNSYGLSSKIMKEEKDRLSGEDTREGMTAIISIKHGDPQFEGQTKTKLGNSEVRQVVDKLFSEHFERFLYENPQVARTVVEKGIMAARARVAAKKAREVTRRKSALDVASLPGKLADCSSKSPEECEIFLVEGDSAGGSTKSGRDSRTQAILPLRGKILNVEKARLDRILNNNEIRQMITAFGTGIGGDFDLAKARYHKIVIMTDADVDGAHIRTLLLTFFYRFMRPLIEAGYVYIAQPPLYKLTQGKQKYYVYNDRELDKLKSELNPTPKWSIARYKGLGEMNADQLWETTMNPEHRALLQVKLEDAIEADQTFEMLMGDVVENRRQFIEDNAVYANLDF

> <PDB ID(s) of Target Chain>


> <UniProt (SwissProt) Recommended Name of Target Chain>
DNA gyrase subunit B

> <UniProt (SwissProt) Entry Name of Target Chain>
GYRB_STAAU

> <UniProt (SwissProt) Primary ID of Target Chain>
P0A0K8

> <UniProt (SwissProt) Secondary ID(s) of Target Chain>
P20832

> <UniProt (SwissProt) Alternative ID(s) of Target Chain>


> <UniProt (TrEMBL) Submitted Name of Target Chain>


> <UniProt (TrEMBL) Entry Name of Target Chain>


> <UniProt (TrEMBL) Primary ID of Target Chain>


> <UniProt (TrEMBL) Secondary ID(s) of Target Chain>


> <UniProt (TrEMBL) Alternative ID(s) of Target Chain>


$$$$

  SciTegic02271514412D

 31 33  0  0  0  0            999 V2000
    7.8336   -3.0863    0.0000 C   0  0
    7.0094   -3.1236    0.0000 C   0  0
    6.6339   -3.8534    0.0000 C   0  0  2  0  0  0
    7.0740   -4.5461    0.0000 C   0  0  2  0  0  0
    7.8982   -4.5088    0.0000 C   0  0
    8.2821   -3.7786    0.0000 N   0  0
    5.8097   -3.8908    0.0000 N   0  0
    5.3652   -3.1959    0.0000 C   0  0
    4.5412   -3.2332    0.0000 C   0  0
    5.7449   -2.4634    0.0000 O   0  0
    9.1062   -3.7411    0.0000 C   0  0
    4.0299   -2.5855    0.0000 C   0  0
    3.2576   -2.8758    0.0000 C   0  0
    3.2950   -3.6999    0.0000 C   0  0
    4.0904   -3.9189    0.0000 N   0  0
    9.6189   -4.3840    0.0000 S   0  0
   10.3911   -4.0938    0.0000 C   0  0
   10.3537   -3.2696    0.0000 C   0  0
    9.5583   -3.0506    0.0000 N   0  0
   10.9984   -2.7548    0.0000 C   0  0
   11.7664   -3.0558    0.0000 O   0  0
   10.8749   -1.9392    0.0000 O   0  0
    2.6504   -4.2147    0.0000 C   0  0
    4.2510   -1.7908    0.0000 Cl  0  0
    2.5689   -2.4216    0.0000 Cl  0  0
    6.6933   -5.2780    0.0000 O   0  0
    5.8692   -5.3142    0.0000 C   0  0
   11.0798   -4.5480    0.0000 C   0  0
   11.8175   -4.1786    0.0000 N   0  0
   11.0309   -5.3715    0.0000 O   0  0
   12.5062   -4.6328    0.0000 C   0  0
  1  2  1  0
  1  6  1  0
  2  3  1  0
  3  4  1  0
  4  5  1  0
  5  6  1  0
  3  7  1  6
  7  8  1  0
  8  9  1  0
  8 10  2  0
  6 11  1  0
  9 12  2  0
 12 13  1  0
 13 14  2  0
 14 15  1  0
 15  9  1  0
 11 16  1  0
 16 17  1  0
 17 18  2  0
 18 19  1  0
 19 11  2  0
 18 20  1  0
 20 21  1  0
 20 22  2  0
 14 23  1  0
 12 24  1  0
 13 25  1  0
  4 26  1  6
 26 27  1  0
 17 28  1  0
 28 29  1  0
 28 30  2  0
 29 31  1  0
M  END
> <From> 
www.bindingDB.org

> <BindingDB Reactant_set_id>
50271358

> <Ligand InChI>
InChI=1S/C18H21Cl2N5O5S/c1-7-10(19)11(20)12(22-7)15(26)23-8-4-5-25(6-9(8)30-3)18-24-13(17(28)29)14(31-18)16(27)21-2/h8-9,22H,4-6H2,1-3H3,(H,21,27)(H,23,26)(H,28,29)/t8-,9+/m1/s1

> <Ligand InChI Key>
KNMVJMPNNWOHFA-BDAKNGLRSA-N

> <BindingDB MonomerID>
50047196

> <BindingDB Ligand Name>
CHEMBL3314562

> <Target Name Assigned by Curator or DataSource>
DNA Gyrase Subunit B

> <Target Source Organism According to Curator or DataSource>
Staphylococcus aureus

> <Ki (nM)>


> <IC50 (nM)>
<10.0

> <Kd (nM)>


> <EC50 (nM)>


> <kon (M-1-s-1)>


> <koff (s-1)>


> <pH>


> <Temp C>


> <Curation/DataSource>
ChEMBL

> <Article DOI>
10.1021/jm500462x

> <PMID>
24959892

> <PubChem AID>


> <Patent Number>


> <Authors>
Basarab, GS; Hill, PJ; Garner, CE; Hull, K; Green, O; Sherer, BA; Dangel, PB; Manchester, JI; Bist, S; Hauck, S; Zhou, F; Uria-Nickelsen, M; Illingworth, R; Alm, R; Rooney, M; Eakin, AE

> <Institution>
AstraZeneca

> <Link to Ligand in BindingDB>
http://www.bindingdb.org/bind/chemsearch/marvin/MolStructure.jsp?monomerid=50047196

> <Link to Ligand-Target Pair in BindingDB>
http://www.bindingdb.org/jsp/dbsearch/PrimarySearch_ki.jsp?energyterm=kJ/mole&tag=pol&polymerid=2626&target=DNA+Gyrase+Subunit+B&column=ki&startPg=0&Increment=50&submit=Search

> <Link to Ligand-Target Pair in BindingDB>
http://www.bindingdb.org/jsp/dbsearch/PrimarySearch_ki.jsp?energyterm=kJ/mole&tag=r21&monomerid=50047196&enzyme=DNA+Gyrase+Subunit+B&column=ki&startPg=0&Increment=50&submit=Search

> <Ligand HET ID in PDB>


> <PDB ID(s) for Ligand-Target Complex>


> <PubChem CID>
118707653

> <PubChem SID>
103977884

> <ChEBI ID of Ligand>


> <ChEMBL ID of Ligand>
CHEMBL282206

> <DrugBank ID of Ligand>


> <IUPHAR_GRAC ID of Ligand>


> <KEGG ID of Ligand>


> <ZINC ID of Ligand>
ZINC28763614

> <Number of Protein Chains in Target (>1 implies a multichain complex)>
1

> <BindingDB Target Chain Sequence>
MVTALSDVNNTDNYGAGQIQVLEGLEAVRKRPGMYIGSTSERGLHHLVWEIVDNSIDEALAGYANQIEVVIEKDNWIKVTDNGRGIPVDIQEKMGRPAVEVILTVLHAGGKFGGGGYKVSGGLHGVGSSVVNALSQDLEVYVHRNETIYHQAYKKGVPQFDLKEVGTTDKTGTVIRFKADGEIFTETTVYNYETLQQRIRELAFLNKGIQITLRDERDEENVREDSYHYEGGIKSYVELLNENKEPIHDEPIYIHQSKDDIEVEIAIQYNSGYATNLLTYANNIHTYEGGTHEDGFKRALTRVLNSYGLSSKIMKEEKDRLSGEDTREGMTAIISIKHGDPQFEGQTKTKLGNSEVRQVVDKLFSEHFERFLYENPQVARTVVEKGIMAARARVAAKKAREVTRRKSALDVASLPGKLADCSSKSPEECEIFLVEGDSAGGSTKSGRDSRTQAILPLRGKILNVEKARLDRILNNNEIRQMITAFGTGIGGDFDLAKARYHKIVIMTDADVDGAHIRTLLLTFFYRFMRPLIEAGYVYIAQPPLYKLTQGKQKYYVYNDRELDKLKSELNPTPKWSIARYKGLGEMNADQLWETTMNPEHRALLQVKLEDAIEADQTFEMLMGDVVENRRQFIEDNAVYANLDF

> <PDB ID(s) of Target Chain>


> <UniProt (SwissProt) Recommended Name of Target Chain>
DNA gyrase subunit B

> <UniProt (SwissProt) Entry Name of Target Chain>
GYRB_STAAU

> <UniProt (SwissProt) Primary ID of Target Chain>
P0A0K8

> <UniProt (SwissProt) Secondary ID(s) of Target Chain>
P20832

> <UniProt (SwissProt) Alternative ID(s) of Target Chain>


> <UniProt (TrEMBL) Submitted Name of Target Chain>


> <UniProt (TrEMBL) Entry Name of Target Chain>


> <UniProt (TrEMBL) Primary ID of Target Chain>


> <UniProt (TrEMBL) Secondary ID(s) of Target Chain>


> <UniProt (TrEMBL) Alternative ID(s) of Target Chain>


$$$$

  SciTegic02271514412D

 30 32  0  0  0  0            999 V2000
    7.8338   -3.0863    0.0000 C   0  0
    7.0096   -3.1237    0.0000 C   0  0
    6.6340   -3.8535    0.0000 C   0  0  2  0  0  0
    7.0742   -4.5462    0.0000 C   0  0  2  0  0  0
    7.8984   -4.5089    0.0000 C   0  0
    8.2823   -3.7787    0.0000 N   0  0
    5.8099   -3.8909    0.0000 N   0  0
    5.3654   -3.1960    0.0000 C   0  0
    4.5413   -3.2333    0.0000 C   0  0
    5.7450   -2.4635    0.0000 O   0  0
    9.1064   -3.7412    0.0000 C   0  0
    4.0300   -2.5856    0.0000 C   0  0
    3.2577   -2.8759    0.0000 C   0  0
    3.2951   -3.7000    0.0000 C   0  0
    4.0905   -3.9190    0.0000 N   0  0
    9.6191   -4.3841    0.0000 N   0  0
   10.3913   -4.0939    0.0000 C   0  0
   10.3540   -3.2697    0.0000 C   0  0
    9.5586   -3.0507    0.0000 S   0  0
   10.9987   -2.7549    0.0000 C   0  0
   11.7667   -3.0559    0.0000 O   0  0
   10.8752   -1.9392    0.0000 O   0  0
    2.6504   -4.2148    0.0000 C   0  0
    4.2511   -1.7908    0.0000 Cl  0  0
    2.5690   -2.4217    0.0000 Cl  0  0
    6.6935   -5.2781    0.0000 O   0  0
    5.8693   -5.3144    0.0000 C   0  0
   11.0801   -4.5479    0.0000 C   0  0
   11.0312   -5.3715    0.0000 O   0  0
   11.8177   -4.1786    0.0000 N   0  0
  1  2  1  0
  1  6  1  0
  2  3  1  0
  3  4  1  0
  4  5  1  0
  5  6  1  0
  3  7  1  6
  7  8  1  0
  8  9  1  0
  8 10  2  0
  6 11  1  0
  9 12  2  0
 12 13  1  0
 13 14  2  0
 14 15  1  0
 15  9  1  0
 11 16  2  0
 16 17  1  0
 17 18  2  0
 18 19  1  0
 19 11  1  0
 18 20  1  0
 20 21  1  0
 20 22  2  0
 14 23  1  0
 12 24  1  0
 13 25  1  0
  4 26  1  6
 26 27  1  0
 17 28  1  0
 28 29  2  0
 28 30  1  0
M  END
> <From> 
www.bindingDB.org

> <BindingDB Reactant_set_id>
50271359

> <Ligand InChI>
InChI=1S/C17H19Cl2N5O5S/c1-6-9(18)10(19)11(21-6)15(26)22-7-3-4-24(5-8(7)29-2)17-23-12(14(20)25)13(30-17)16(27)28/h7-8,21H,3-5H2,1-2H3,(H2,20,25)(H,22,26)(H,27,28)/t7-,8+/m1/s1

> <Ligand InChI Key>
TUEOMMOSYNTSGL-SFYZADRCSA-N

> <BindingDB MonomerID>
50047198

> <BindingDB Ligand Name>
CHEMBL3314563

> <Target Name Assigned by Curator or DataSource>
DNA Gyrase Subunit B

> <Target Source Organism According to Curator or DataSource>
Staphylococcus aureus

> <Ki (nM)>


> <IC50 (nM)>
<10.0

> <Kd (nM)>


> <EC50 (nM)>


> <kon (M-1-s-1)>


> <koff (s-1)>


> <pH>


> <Temp C>


> <Curation/DataSource>
ChEMBL

> <Article DOI>
10.1021/jm500462x

> <PMID>
24959892

> <PubChem AID>


> <Patent Number>


> <Authors>
Basarab, GS; Hill, PJ; Garner, CE; Hull, K; Green, O; Sherer, BA; Dangel, PB; Manchester, JI; Bist, S; Hauck, S; Zhou, F; Uria-Nickelsen, M; Illingworth, R; Alm, R; Rooney, M; Eakin, AE

> <Institution>
AstraZeneca

> <Link to Ligand in BindingDB>
http://www.bindingdb.org/bind/chemsearch/marvin/MolStructure.jsp?monomerid=50047198

> <Link to Ligand-Target Pair in BindingDB>
http://www.bindingdb.org/jsp/dbsearch/PrimarySearch_ki.jsp?energyterm=kJ/mole&tag=pol&polymerid=2626&target=DNA+Gyrase+Subunit+B&column=ki&startPg=0&Increment=50&submit=Search

> <Link to Ligand-Target Pair in BindingDB>
http://www.bindingdb.org/jsp/dbsearch/PrimarySearch_ki.jsp?energyterm=kJ/mole&tag=r21&monomerid=50047198&enzyme=DNA+Gyrase+Subunit+B&column=ki&startPg=0&Increment=50&submit=Search

> <Ligand HET ID in PDB>


> <PDB ID(s) for Ligand-Target Complex>


> <PubChem CID>
89699082

> <PubChem SID>
103977886

> <ChEBI ID of Ligand>


> <ChEMBL ID of Ligand>
CHEMBL25810

> <DrugBank ID of Ligand>


> <IUPHAR_GRAC ID of Ligand>


> <KEGG ID of Ligand>


> <ZINC ID of Ligand>
ZINC13827027

> <Number of Protein Chains in Target (>1 implies a multichain complex)>
1

> <BindingDB Target Chain Sequence>
MVTALSDVNNTDNYGAGQIQVLEGLEAVRKRPGMYIGSTSERGLHHLVWEIVDNSIDEALAGYANQIEVVIEKDNWIKVTDNGRGIPVDIQEKMGRPAVEVILTVLHAGGKFGGGGYKVSGGLHGVGSSVVNALSQDLEVYVHRNETIYHQAYKKGVPQFDLKEVGTTDKTGTVIRFKADGEIFTETTVYNYETLQQRIRELAFLNKGIQITLRDERDEENVREDSYHYEGGIKSYVELLNENKEPIHDEPIYIHQSKDDIEVEIAIQYNSGYATNLLTYANNIHTYEGGTHEDGFKRALTRVLNSYGLSSKIMKEEKDRLSGEDTREGMTAIISIKHGDPQFEGQTKTKLGNSEVRQVVDKLFSEHFERFLYENPQVARTVVEKGIMAARARVAAKKAREVTRRKSALDVASLPGKLADCSSKSPEECEIFLVEGDSAGGSTKSGRDSRTQAILPLRGKILNVEKARLDRILNNNEIRQMITAFGTGIGGDFDLAKARYHKIVIMTDADVDGAHIRTLLLTFFYRFMRPLIEAGYVYIAQPPLYKLTQGKQKYYVYNDRELDKLKSELNPTPKWSIARYKGLGEMNADQLWETTMNPEHRALLQVKLEDAIEADQTFEMLMGDVVENRRQFIEDNAVYANLDF

> <PDB ID(s) of Target Chain>


> <UniProt (SwissProt) Recommended Name of Target Chain>
DNA gyrase subunit B

> <UniProt (SwissProt) Entry Name of Target Chain>
GYRB_STAAU

> <UniProt (SwissProt) Primary ID of Target Chain>
P0A0K8

> <UniProt (SwissProt) Secondary ID(s) of Target Chain>
P20832

> <UniProt (SwissProt) Alternative ID(s) of Target Chain>


> <UniProt (TrEMBL) Submitted Name of Target Chain>


> <UniProt (TrEMBL) Entry Name of Target Chain>


> <UniProt (TrEMBL) Primary ID of Target Chain>


> <UniProt (TrEMBL) Secondary ID(s) of Target Chain>


> <UniProt (TrEMBL) Alternative ID(s) of Target Chain>


$$$$

  Mrv0541 11241412072D          

 33 36  0  0  0  0            999 V2000
    9.1027  -11.4136    0.0000 C   0  0  0  0  0  0  0  0  0  0  0  0
    9.8190  -11.0004    0.0000 C   0  0  0  0  0  0  0  0  0  0  0  0
    9.8162  -10.1699    0.0000 C   0  0  0  0  0  0  0  0  0  0  0  0
    9.1009   -9.7609    0.0000 N   0  0  0  0  0  0  0  0  0  0  0  0
    8.3879  -11.0008    0.0000 C   0  0  0  0  0  0  0  0  0  0  0  0
    8.3891  -10.1720    0.0000 C   0  0  0  0  0  0  0  0  0  0  0  0
    7.6013   -9.9147    0.0000 N   0  0  0  0  0  0  0  0  0  0  0  0
    7.1131  -10.5846    0.0000 C   0  0  0  0  0  0  0  0  0  0  0  0
    7.5993  -11.2557    0.0000 C   0  0  0  0  0  0  0  0  0  0  0  0
   10.5305  -11.4109    0.0000 C   0  0  0  0  0  0  0  0  0  0  0  0
   10.5305  -12.2369    0.0000 C   0  0  0  0  0  0  0  0  0  0  0  0
   11.2446  -12.6482    0.0000 N   0  0  0  0  0  0  0  0  0  0  0  0
   11.9593  -12.2345    0.0000 C   0  0  0  0  0  0  0  0  0  0  0  0
   11.9554  -11.4053    0.0000 C   0  0  0  0  0  0  0  0  0  0  0  0
   11.2406  -10.9979    0.0000 C   0  0  0  0  0  0  0  0  0  0  0  0
   12.6702  -10.9879    0.0000 C   0  0  0  0  0  0  0  0  0  0  0  0
   13.3867  -11.3967    0.0000 N   0  0  0  0  0  0  0  0  0  0  0  0
   12.6660  -10.1630    0.0000 O   0  0  0  0  0  0  0  0  0  0  0  0
    9.1048  -12.2348    0.0000 N   0  0  0  0  0  0  0  0  0  0  0  0
    8.4373  -12.7195    0.0000 C   0  0  0  0  0  0  0  0  0  0  0  0
    8.6921  -13.5040    0.0000 C   0  0  0  0  0  0  0  0  0  0  0  0
    9.5170  -13.5042    0.0000 C   0  0  0  0  0  0  0  0  0  0  0  0
    9.7720  -12.7199    0.0000 N   0  0  0  0  0  0  0  0  0  0  0  0
   10.0017  -14.1718    0.0000 C   0  0  0  0  0  0  0  0  0  0  0  0
    9.6661  -14.9252    0.0000 F   0  0  0  0  0  0  0  0  0  0  0  0
   10.8221  -14.0856    0.0000 F   0  0  0  0  0  0  0  0  0  0  0  0
   10.4069  -14.8813    0.0000 F   0  0  0  0  0  0  0  0  0  0  0  0
    6.2883  -10.5834    0.0000 C   0  0  0  0  0  0  0  0  0  0  0  0
    5.8768   -9.8683    0.0000 N   0  0  0  0  0  0  0  0  0  0  0  0
    5.8747  -11.2971    0.0000 O   0  0  0  0  0  0  0  0  0  0  0  0
    5.0519   -9.8671    0.0000 C   0  0  0  0  0  0  0  0  0  0  0  0
   14.0990  -10.9806    0.0000 C   0  0  0  0  0  0  0  0  0  0  0  0
    4.6405   -9.1522    0.0000 C   0  0  0  0  0  0  0  0  0  0  0  0
  3  4  1  0  0  0  0
  6  7  1  0  0  0  0
  7  8  1  0  0  0  0
 16 17  1  0  0  0  0
 16 18  2  0  0  0  0
 14 16  1  0  0  0  0
 19 20  1  0  0  0  0
  8  9  2  0  0  0  0
  9  5  1  0  0  0  0
  4  6  2  0  0  0  0
  5  6  1  0  0  0  0
 10 11  2  0  0  0  0
 20 21  2  0  0  0  0
 21 22  1  0  0  0  0
 22 23  2  0  0  0  0
 23 19  1  0  0  0  0
  1 19  1  0  0  0  0
  1  2  1  0  0  0  0
 22 24  1  0  0  0  0
 11 12  1  0  0  0  0
 24 25  1  0  0  0  0
  5  1  2  0  0  0  0
 24 26  1  0  0  0  0
 12 13  2  0  0  0  0
 24 27  1  0  0  0  0
  2  3  2  0  0  0  0
  8 28  1  0  0  0  0
 13 14  1  0  0  0  0
 28 29  1  0  0  0  0
 28 30  2  0  0  0  0
 14 15  2  0  0  0  0
 29 31  1  0  0  0  0
 15 10  1  0  0  0  0
 17 32  1  0  0  0  0
  2 10  1  0  0  0  0
 31 33  1  0  0  0  0
M  END
> <From> 
www.bindingDB.org

> <BindingDB Reactant_set_id>
50945995

> <Ligand InChI>
InChI=1S/C21H18F3N7O2/c1-3-27-20(33)15-7-13-17(31-5-4-16(30-31)21(22,23)24)14(10-28-18(13)29-15)11-6-12(9-26-8-11)19(32)25-2/h4-10H,3H2,1-2H3,(H,25,32)(H,27,33)(H,28,29)

> <Ligand InChI Key>
NRPNJRAEKQHKFB-UHFFFAOYSA-N

> <BindingDB MonomerID>
50388098

> <BindingDB Ligand Name>
CHEMBL2059376

> <Target Name Assigned by Curator or DataSource>
DNA Gyrase Subunit B

> <Target Source Organism According to Curator or DataSource>
Staphylococcus aureus

> <Ki (nM)>


> <IC50 (nM)>
 11

> <Kd (nM)>


> <EC50 (nM)>


> <kon (M-1-s-1)>


> <koff (s-1)>


> <pH>


> <Temp C>


> <Curation/DataSource>
ChEMBL

> <Article DOI>
10.1016/j.bmcl.2012.05.128

> <PMID>
22814212

> <PubChem AID>


> <Patent Number>


> <Authors>
Manchester, JI; Dussault, DD; Rose, JA; Boriack-Sjodin, PA; Uria-Nickelsen, M; Ioannidis, G; Bist, S; Fleming, P; Hull, KG

> <Institution>
AstraZeneca

> <Link to Ligand in BindingDB>
http://www.bindingdb.org/bind/chemsearch/marvin/MolStructure.jsp?monomerid=50388098

> <Link to Ligand-Target Pair in BindingDB>
http://www.bindingdb.org/jsp/dbsearch/PrimarySearch_ki.jsp?energyterm=kJ/mole&tag=pol&polymerid=2626&target=DNA+Gyrase+Subunit+B&column=ki&startPg=0&Increment=50&submit=Search

> <Link to Ligand-Target Pair in BindingDB>
http://www.bindingdb.org/jsp/dbsearch/PrimarySearch_ki.jsp?energyterm=kJ/mole&tag=r21&monomerid=50388098&enzyme=DNA+Gyrase+Subunit+B&column=ki&startPg=0&Increment=50&submit=Search

> <Ligand HET ID in PDB>


> <PDB ID(s) for Ligand-Target Complex>


> <PubChem CID>
62705859

> <PubChem SID>
160867181

> <ChEBI ID of Ligand>


> <ChEMBL ID of Ligand>
CHEMBL2059376

> <DrugBank ID of Ligand>


> <IUPHAR_GRAC ID of Ligand>


> <KEGG ID of Ligand>


> <ZINC ID of Ligand>
ZINC84687918

> <Number of Protein Chains in Target (>1 implies a multichain complex)>
1

> <BindingDB Target Chain Sequence>
MVTALSDVNNTDNYGAGQIQVLEGLEAVRKRPGMYIGSTSERGLHHLVWEIVDNSIDEALAGYANQIEVVIEKDNWIKVTDNGRGIPVDIQEKMGRPAVEVILTVLHAGGKFGGGGYKVSGGLHGVGSSVVNALSQDLEVYVHRNETIYHQAYKKGVPQFDLKEVGTTDKTGTVIRFKADGEIFTETTVYNYETLQQRIRELAFLNKGIQITLRDERDEENVREDSYHYEGGIKSYVELLNENKEPIHDEPIYIHQSKDDIEVEIAIQYNSGYATNLLTYANNIHTYEGGTHEDGFKRALTRVLNSYGLSSKIMKEEKDRLSGEDTREGMTAIISIKHGDPQFEGQTKTKLGNSEVRQVVDKLFSEHFERFLYENPQVARTVVEKGIMAARARVAAKKAREVTRRKSALDVASLPGKLADCSSKSPEECEIFLVEGDSAGGSTKSGRDSRTQAILPLRGKILNVEKARLDRILNNNEIRQMITAFGTGIGGDFDLAKARYHKIVIMTDADVDGAHIRTLLLTFFYRFMRPLIEAGYVYIAQPPLYKLTQGKQKYYVYNDRELDKLKSELNPTPKWSIARYKGLGEMNADQLWETTMNPEHRALLQVKLEDAIEADQTFEMLMGDVVENRRQFIEDNAVYANLDF

> <PDB ID(s) of Target Chain>


> <UniProt (SwissProt) Recommended Name of Target Chain>
DNA gyrase subunit B

> <UniProt (SwissProt) Entry Name of Target Chain>
GYRB_STAAU

> <UniProt (SwissProt) Primary ID of Target Chain>
P0A0K8

> <UniProt (SwissProt) Secondary ID(s) of Target Chain>
P20832

> <UniProt (SwissProt) Alternative ID(s) of Target Chain>


> <UniProt (TrEMBL) Submitted Name of Target Chain>


> <UniProt (TrEMBL) Entry Name of Target Chain>


> <UniProt (TrEMBL) Primary ID of Target Chain>


> <UniProt (TrEMBL) Secondary ID(s) of Target Chain>


> <UniProt (TrEMBL) Alternative ID(s) of Target Chain>


$$$$

  SciTegic09291413392D

 29 32  0  0  0  0            999 V2000
   12.1093   -1.8573    0.0000 C   0  0
   14.2334   -0.6273    0.0000 C   0  0
   14.2323   -1.4468    0.0000 C   0  0
   14.9403   -1.8558    0.0000 N   0  0
   14.9385   -0.2184    0.0000 C   0  0
   15.6471   -0.6237    0.0000 C   0  0
   15.6520   -1.4469    0.0000 C   0  0
   16.4363   -1.6967    0.0000 S   0  0
   16.9163   -1.0279    0.0000 C   0  0
   16.4285   -0.3648    0.0000 N   0  0
   13.5277   -0.2190    0.0000 C   0  0
   13.5288    0.6059    0.0000 C   0  0
   12.8218    1.0147    0.0000 N   0  0
   12.1132    0.6064    0.0000 C   0  0
   12.1161   -0.2226    0.0000 C   0  0
   17.7335   -1.0230    0.0000 N   0  0
   18.1379   -0.3129    0.0000 C   0  0
   18.9551   -0.3081    0.0000 N   0  0
   17.7252    0.4001    0.0000 O   0  0
   19.3595    0.4069    0.0000 C   0  0
   20.1767    0.4103    0.0000 C   0  0
   12.8175   -0.6285    0.0000 C   0  0
   13.5242   -1.8549    0.0000 O   0  0
   12.8168   -1.4457    0.0000 C   0  0
   11.3604   -1.5268    0.0000 C   0  0
   10.8146   -2.1369    0.0000 C   0  0
   11.2262   -2.8445    0.0000 O   0  0
   12.0263   -2.6716    0.0000 C   0  0
   11.4049    1.0078    0.0000 C   0  0
  2  3  2  0
  3  4  1  0
  4  7  2  0
  6  5  2  0
  5  2  1  0
  6  7  1  0
  7  8  1  0
  8  9  1  0
  9 10  2  0
 10  6  1  0
 11 12  2  0
 12 13  1  0
 13 14  2  0
 14 15  1  0
 15 22  2  0
 22 11  1  0
  2 11  1  0
  9 16  1  0
 16 17  1  0
 17 18  1  0
 17 19  2  0
 18 20  1  0
 20 21  1  0
  3 23  1  0
 23 24  1  0
 24  1  1  0
  1 25  1  0
 25 26  1  0
 26 27  1  0
 27 28  1  0
 28  1  1  0
 14 29  1  0
M  END
> <From> 
www.bindingDB.org

> <BindingDB Reactant_set_id>
50089923

> <Ligand InChI>
InChI=1S/C20H23N5O3S/c1-3-21-19(26)25-20-23-16-8-15(14-5-4-12(2)22-9-14)17(24-18(16)29-20)28-11-13-6-7-27-10-13/h4-5,8-9,13H,3,6-7,10-11H2,1-2H3,(H2,21,23,25,26)

> <Ligand InChI Key>
UAKSVFADNNVFPA-UHFFFAOYSA-N

> <BindingDB MonomerID>
50010363

> <BindingDB Ligand Name>
CHEMBL3263605

> <Target Name Assigned by Curator or DataSource>
DNA gyrase subunit B

> <Target Source Organism According to Curator or DataSource>


> <Ki (nM)>


> <IC50 (nM)>
 11

> <Kd (nM)>


> <EC50 (nM)>


> <kon (M-1-s-1)>


> <koff (s-1)>


> <pH>


> <Temp C>


> <Curation/DataSource>
ChEMBL

> <Article DOI>
10.1021/jm401268f

> <PMID>
24088190

> <PubChem AID>


> <Patent Number>


> <Authors>
Ahuja, V; Ahuja, V; Basavarajappa, H; Basavarajappa, H; P, SH; P, SH; Boriack-Sjodin, PA; Boriack-Sjodin, PA; McKinney, D; McKinney, D; Ganguly, S; Ganguly, S; Kranthi, U; Kranthi, U; Gaonkar, S; Gaonkar, S; Jena, Lk; Jena, Lk; Ghorpade, SR; Ghorpade, SR; Ghosh, A; Ghosh, A; Barde, S; Barde, S; Kale, MG; Kale, MG; Koushik, K; Koushik, K; Kumar, CN; Kumar, CN; Manjunatha, MR; Manjunatha, MR; Ogg, D; Ogg, D; Panduga, V; Panduga, V; Ramya, VK; Ramya, VK; Reddy, J; Reddy, J; Kumar, KN; Kumar, KN; Giridhar, J; Giridhar, J; Rudrapatna, S; Rudrapatna, S; Sharma, S; Sharma, S; Tucker, JA; Tucker, JA; Vachaspati, P; Vachaspati, P; Waterson, D; Waterson, D; de Sousa, SM; de Sousa, SM

> <Institution>
AstraZeneca India Pvt. Ltd.

> <Link to Ligand in BindingDB>
http://www.bindingdb.org/bind/chemsearch/marvin/MolStructure.jsp?monomerid=50010363

> <Link to Ligand-Target Pair in BindingDB>
http://www.bindingdb.org/jsp/dbsearch/PrimarySearch_ki.jsp?energyterm=kJ/mole&tag=pol&polymerid=50006452&target=DNA+gyrase+subunit+B&column=ki&startPg=0&Increment=50&submit=Search

> <Link to Ligand-Target Pair in BindingDB>
http://www.bindingdb.org/jsp/dbsearch/PrimarySearch_ki.jsp?energyterm=kJ/mole&tag=r21&monomerid=50010363&enzyme=DNA+gyrase+subunit+B&column=ki&startPg=0&Increment=50&submit=Search

> <Ligand HET ID in PDB>


> <PDB ID(s) for Ligand-Target Complex>


> <PubChem CID>
72713304

> <PubChem SID>
103923177

> <ChEBI ID of Ligand>


> <ChEMBL ID of Ligand>
CHEMBL3263605

> <DrugBank ID of Ligand>


> <IUPHAR_GRAC ID of Ligand>


> <KEGG ID of Ligand>


> <ZINC ID of Ligand>
ZINC26959443

> <Number of Protein Chains in Target (>1 implies a multichain complex)>
1

> <BindingDB Target Chain Sequence>
MAAQKNNAPKEYGADSITILEGLEAVRKRPGMYIGSTGERGLHHLIWEVVDNAVDEAMAGFATRVDVKIHADGSVEVRDDGRGIPVEMHATGMPTIDVVMTQLHAGGKFDGETYAVSGGLHGVGVSVVNALSTRLEATVLRDGYEWFQYYDRSVPGKLKQGGETKETGTTIRFWADPEIFETTDYNFETVARRLQEMAFLNKGLTIELTDERVTAEEVVDDVVKDTAEAPKTADEKAAEATGPSKVKHRVFHYPGGLVDYVKHINRTKTPIQQSIIDFDGKGPGHEVEIAMQWNAGYSESVHTFANTINTHEGGTHEEGFRAALTSVVNRYAKDKKLLKDKDPNLTGDDIREGLAAVISVKVAEPQFEGQTKTKLGNTEVKSFVQKICNEQLQHWFEANPAEAKTVVNKAVSSAQARIAARKARELVRRKSATDIGGLPGKLADCRSTDPSKSELYVVEGDSAGGSAKSGRDSMFQAILPLRGKIINVEKARIDRVLKNTEVQSIITALGTGIHDEFDISKLRYHKIVLMADADVDGQHISTLLLTLLFRFMKPLVENGHIFLAQPPLYKLKWQRSEPEFAYSDRERDGLLEAGRAAGKKINVDDGIQRYKGLGEMDAKELWETTMDPSVRVLRQVTLDDAAAADELFSILMGEDVEARRSFITRNAKDVRFLDV

> <PDB ID(s) of Target Chain>
4BAE

> <UniProt (SwissProt) Recommended Name of Target Chain>
DNA gyrase subunit B

> <UniProt (SwissProt) Entry Name of Target Chain>
GYRB_MYCSM

> <UniProt (SwissProt) Primary ID of Target Chain>
P0C559

> <UniProt (SwissProt) Secondary ID(s) of Target Chain>
P48355,Q59555

> <UniProt (SwissProt) Alternative ID(s) of Target Chain>


> <UniProt (TrEMBL) Submitted Name of Target Chain>


> <UniProt (TrEMBL) Entry Name of Target Chain>


> <UniProt (TrEMBL) Primary ID of Target Chain>


> <UniProt (TrEMBL) Secondary ID(s) of Target Chain>


> <UniProt (TrEMBL) Alternative ID(s) of Target Chain>


$$$$

  SciTegic12091614222D

 26 29  0  0  0  0            999 V2000
    7.5821    5.5422    0.0000 C   0  0
    6.3724    4.6552    0.0000 C   0  0
    5.0044    5.2582    0.0000 C   0  0
    4.8363    6.7505    0.0000 C   0  0
    6.0460    7.6374    0.0000 C   0  0
    7.4189    7.0332    0.0000 N   0  0
    3.6243    2.9682    0.0000 S   0  0
    3.7308    4.4645    0.0000 C   0  0
    2.3406    5.0280    0.0000 N   0  0
    1.3751    3.8801    0.0000 C   0  0
    2.1749    2.6315    0.0000 C   0  0
    1.7138   -1.2033    0.0000 N   0  0
    2.5889    0.0182    0.0000 N   0  0
    1.7138    1.2033    0.0000 C   0  0
    0.2917    0.7475    0.0000 C   0  0
   -1.0028    1.5132    0.0000 C   0  0
   -2.3155    0.7475    0.0000 C   0  0
   -2.3155   -0.7475    0.0000 C   0  0
   -1.0028   -1.5132    0.0000 C   0  0
    0.2917   -0.7475    0.0000 C   0  0
   -0.9971   -3.0138    0.0000 C   0  0
   -2.2935   -3.7700    0.0000 C   0  0
   -2.2889   -4.9699    0.0000 C   0  0
    8.9571    4.9405    0.0000 C   0  0
    9.0898    3.7478    0.0000 O   0  0
    9.9238    5.6514    0.0000 O   0  0
  1  2  1  0
  2  3  2  0
  3  4  1  0
  4  5  2  0
  5  6  1  0
  1  6  2  0
  7  8  1  0
  8  9  2  0
  9 10  1  0
 10 11  2  0
  7 11  1  0
 12 13  1  0
 13 14  2  0
 14 15  1  0
 15 16  1  0
 16 17  2  0
 17 18  1  0
 18 19  2  0
 19 20  1  0
 12 20  1  0
 15 20  2  0
 21 22  1  0
 22 23  1  0
 19 21  1  0
 11 14  1  0
  3  8  1  0
 24 25  1  0
 24 26  2  0
  1 24  1  0
M  END
> <From> 
www.bindingDB.org

> <BindingDB Reactant_set_id>
50445671

> <Ligand InChI>
InChI=1S/C19H16N4O2S/c1-2-4-11-5-3-6-13-16(11)22-23-17(13)15-10-21-18(26-15)12-7-8-20-14(9-12)19(24)25/h3,5-10H,2,4H2,1H3,(H,22,23)(H,24,25)

> <Ligand InChI Key>
WFWQWEXBORPMHP-UHFFFAOYSA-N

> <BindingDB MonomerID>
50135112

> <BindingDB Ligand Name>
CHEMBL3739453

> <Target Name Assigned by Curator or DataSource>
DNA gyrase

> <Target Source Organism According to Curator or DataSource>
Staphylococcus aureus

> <Ki (nM)>


> <IC50 (nM)>
 11

> <Kd (nM)>


> <EC50 (nM)>


> <kon (M-1-s-1)>


> <koff (s-1)>


> <pH>


> <Temp C>


> <Curation/DataSource>
ChEMBL

> <Article DOI>
10.1021/acsmedchemlett.5b00266

> <PMID>
26487916

> <PubChem AID>


> <Patent Number>


> <Authors>
Zhang, J; Yang, Q; Romero, JA; Cross, J; Wang, B; Poutsiaka, KM; Epie, F; Bevan, D; Wu, Y; Moy, T; Daniel, A; Chamberlain, B; Carter, N; Shotwell, J; Arya, A; Kumar, V; Silverman, J; Nguyen, K; Metcalf, CA; Ryan, D; Lippa, B; Dolle, RE

> <Institution>
Cubist Pharmaceuticals Inc.

> <Link to Ligand in BindingDB>
http://www.bindingdb.org/bind/chemsearch/marvin/MolStructure.jsp?monomerid=50135112

> <Link to Ligand-Target Pair in BindingDB>
http://www.bindingdb.org/jsp/dbsearch/PrimarySearch_ki.jsp?energyterm=kJ/mole&tag=pol&polymerid=2626&target=DNA+gyrase&column=ki&startPg=0&Increment=50&submit=Search

> <Link to Ligand-Target Pair in BindingDB>
http://www.bindingdb.org/jsp/dbsearch/PrimarySearch_ki.jsp?energyterm=kJ/mole&tag=r21&monomerid=50135112&enzyme=DNA+gyrase&column=ki&startPg=0&Increment=50&submit=Search

> <Ligand HET ID in PDB>


> <PDB ID(s) for Ligand-Target Complex>


> <PubChem CID>
127038120

> <PubChem SID>
336951725

> <ChEBI ID of Ligand>


> <ChEMBL ID of Ligand>


> <DrugBank ID of Ligand>


> <IUPHAR_GRAC ID of Ligand>


> <KEGG ID of Ligand>


> <ZINC ID of Ligand>


> <Number of Protein Chains in Target (>1 implies a multichain complex)>
1

> <BindingDB Target Chain Sequence>
MVTALSDVNNTDNYGAGQIQVLEGLEAVRKRPGMYIGSTSERGLHHLVWEIVDNSIDEALAGYANQIEVVIEKDNWIKVTDNGRGIPVDIQEKMGRPAVEVILTVLHAGGKFGGGGYKVSGGLHGVGSSVVNALSQDLEVYVHRNETIYHQAYKKGVPQFDLKEVGTTDKTGTVIRFKADGEIFTETTVYNYETLQQRIRELAFLNKGIQITLRDERDEENVREDSYHYEGGIKSYVELLNENKEPIHDEPIYIHQSKDDIEVEIAIQYNSGYATNLLTYANNIHTYEGGTHEDGFKRALTRVLNSYGLSSKIMKEEKDRLSGEDTREGMTAIISIKHGDPQFEGQTKTKLGNSEVRQVVDKLFSEHFERFLYENPQVARTVVEKGIMAARARVAAKKAREVTRRKSALDVASLPGKLADCSSKSPEECEIFLVEGDSAGGSTKSGRDSRTQAILPLRGKILNVEKARLDRILNNNEIRQMITAFGTGIGGDFDLAKARYHKIVIMTDADVDGAHIRTLLLTFFYRFMRPLIEAGYVYIAQPPLYKLTQGKQKYYVYNDRELDKLKSELNPTPKWSIARYKGLGEMNADQLWETTMNPEHRALLQVKLEDAIEADQTFEMLMGDVVENRRQFIEDNAVYANLDF

> <PDB ID(s) of Target Chain>


> <UniProt (SwissProt) Recommended Name of Target Chain>
DNA gyrase subunit B

> <UniProt (SwissProt) Entry Name of Target Chain>
GYRB_STAAU

> <UniProt (SwissProt) Primary ID of Target Chain>
P0A0K8

> <UniProt (SwissProt) Secondary ID(s) of Target Chain>
P20832

> <UniProt (SwissProt) Alternative ID(s) of Target Chain>


> <UniProt (TrEMBL) Submitted Name of Target Chain>


> <UniProt (TrEMBL) Entry Name of Target Chain>


> <UniProt (TrEMBL) Primary ID of Target Chain>


> <UniProt (TrEMBL) Secondary ID(s) of Target Chain>


> <UniProt (TrEMBL) Alternative ID(s) of Target Chain>


$$$$

  Mrv0541 11241420052D          

 28 31  0  0  0  0            999 V2000
   14.3401  -28.9830    0.0000 C   0  0  0  0  0  0  0  0  0  0  0  0
   14.3390  -29.8104    0.0000 C   0  0  0  0  0  0  0  0  0  0  0  0
   15.0537  -30.2233    0.0000 N   0  0  0  0  0  0  0  0  0  0  0  0
   15.0519  -28.5702    0.0000 C   0  0  0  0  0  0  0  0  0  0  0  0
   15.7673  -28.9794    0.0000 C   0  0  0  0  0  0  0  0  0  0  0  0
   15.7676  -29.8104    0.0000 C   0  0  0  0  0  0  0  0  0  0  0  0
   16.5581  -30.0670    0.0000 S   0  0  0  0  0  0  0  0  0  0  0  0
   17.0464  -29.3945    0.0000 C   0  0  0  0  0  0  0  0  0  0  0  0
   16.5577  -28.7224    0.0000 N   0  0  0  0  0  0  0  0  0  0  0  0
   17.8714  -29.3942    0.0000 N   0  0  0  0  0  0  0  0  0  0  0  0
   18.2836  -28.6796    0.0000 C   0  0  0  0  0  0  0  0  0  0  0  0
   19.1086  -28.6793    0.0000 O   0  0  0  0  0  0  0  0  0  0  0  0
   17.8709  -27.9653    0.0000 N   0  0  0  0  0  0  0  0  0  0  0  0
   18.2831  -27.2507    0.0000 C   0  0  0  0  0  0  0  0  0  0  0  0
   17.8704  -26.5363    0.0000 C   0  0  0  0  0  0  0  0  0  0  0  0
   13.6241  -30.2223    0.0000 O   0  0  0  0  0  0  0  0  0  0  0  0
   15.0539  -31.0483    0.0000 C   0  0  0  0  0  0  0  0  0  0  0  0
   14.3396  -31.4609    0.0000 C   0  0  0  0  0  0  0  0  0  0  0  0
   15.7685  -31.4606    0.0000 C   0  0  0  0  0  0  0  0  0  0  0  0
   13.6255  -28.5706    0.0000 C   0  0  0  0  0  0  0  0  0  0  0  0
   13.6288  -27.7447    0.0000 C   0  0  0  0  0  0  0  0  0  0  0  0
   12.2026  -28.5745    0.0000 C   0  0  0  0  0  0  0  0  0  0  0  0
   12.9168  -28.9829    0.0000 C   0  0  0  0  0  0  0  0  0  0  0  0
   12.1996  -27.7452    0.0000 C   0  0  0  0  0  0  0  0  0  0  0  0
   12.9105  -27.3306    0.0000 N   0  0  0  0  0  0  0  0  0  0  0  0
   12.7359  -26.5264    0.0000 N   0  0  0  0  0  0  0  0  0  0  0  0
   11.9171  -26.4440    0.0000 C   0  0  0  0  0  0  0  0  0  0  0  0
   11.5857  -27.1973    0.0000 N   0  0  0  0  0  0  0  0  0  0  0  0
  1  2  1  0  0  0  0
  2  3  1  0  0  0  0
  3  6  1  0  0  0  0
  5  4  1  0  0  0  0
  4  1  2  0  0  0  0
  5  6  2  0  0  0  0
  6  7  1  0  0  0  0
  7  8  1  0  0  0  0
  8  9  2  0  0  0  0
  9  5  1  0  0  0  0
  8 10  1  0  0  0  0
 10 11  1  0  0  0  0
 11 12  2  0  0  0  0
 11 13  1  0  0  0  0
 13 14  1  0  0  0  0
 14 15  1  0  0  0  0
  2 16  2  0  0  0  0
  3 17  1  0  0  0  0
 17 18  1  0  0  0  0
 17 19  1  0  0  0  0
  1 20  1  0  0  0  0
 20 21  2  0  0  0  0
 21 25  1  0  0  0  0
 24 22  1  0  0  0  0
 22 23  2  0  0  0  0
 23 20  1  0  0  0  0
 24 25  1  0  0  0  0
 25 26  1  0  0  0  0
 26 27  2  0  0  0  0
 27 28  1  0  0  0  0
 28 24  2  0  0  0  0
M  END
> <From> 
www.bindingDB.org

> <BindingDB Reactant_set_id>
51091608

> <Ligand InChI>
InChI=1S/C18H19N7O2S/c1-4-19-17(27)23-18-22-13-7-12(15(26)25(10(2)3)16(13)28-18)11-5-6-14-20-9-21-24(14)8-11/h5-10H,4H2,1-3H3,(H2,19,22,23,27)

> <Ligand InChI Key>
PZENHOQOINDFGF-UHFFFAOYSA-N

> <BindingDB MonomerID>
50447296

> <BindingDB Ligand Name>
CHEMBL3114191

> <Target Name Assigned by Curator or DataSource>
DNA gyrase subunit B

> <Target Source Organism According to Curator or DataSource>


> <Ki (nM)>


> <IC50 (nM)>
 11

> <Kd (nM)>


> <EC50 (nM)>


> <kon (M-1-s-1)>


> <koff (s-1)>


> <pH>


> <Temp C>


> <Curation/DataSource>
ChEMBL

> <Article DOI>
10.1016/j.bmcl.2013.12.080

> <PMID>
24405701

> <PubChem AID>


> <Patent Number>


> <Authors>
Kale, RR; Kale, MG; Waterson, D; Raichurkar, A; Hameed, SP; Manjunatha, MR; Kishore Reddy, BK; Malolanarasimhan, K; Shinde, V; Koushik, K; Jena, LK; Menasinakai, S; Humnabadkar, V; Madhavapeddi, P; Basavarajappa, H; Sharma, S; Nandishaiah, R; Mahesh Kumar, KN; Ganguly, S; Ahuja, V; Gaonkar, S; Naveen Kumar, CN; Ogg, D; Boriack-Sjodin, PA; Sambandamurthy, VK; de Sousa, SM; Ghorpade, SR

> <Institution>
AstraZeneca

> <Link to Ligand in BindingDB>
http://www.bindingdb.org/bind/chemsearch/marvin/MolStructure.jsp?monomerid=50447296

> <Link to Ligand-Target Pair in BindingDB>
http://www.bindingdb.org/jsp/dbsearch/PrimarySearch_ki.jsp?energyterm=kJ/mole&tag=pol&polymerid=50006452&target=DNA+gyrase+subunit+B&column=ki&startPg=0&Increment=50&submit=Search

> <Link to Ligand-Target Pair in BindingDB>
http://www.bindingdb.org/jsp/dbsearch/PrimarySearch_ki.jsp?energyterm=kJ/mole&tag=r21&monomerid=50447296&enzyme=DNA+gyrase+subunit+B&column=ki&startPg=0&Increment=50&submit=Search

> <Ligand HET ID in PDB>


> <PDB ID(s) for Ligand-Target Complex>


> <PubChem CID>
76321433

> <PubChem SID>
194945192

> <ChEBI ID of Ligand>


> <ChEMBL ID of Ligand>
CHEMBL3114191

> <DrugBank ID of Ligand>


> <IUPHAR_GRAC ID of Ligand>


> <KEGG ID of Ligand>


> <ZINC ID of Ligand>


> <Number of Protein Chains in Target (>1 implies a multichain complex)>
1

> <BindingDB Target Chain Sequence>
MAAQKNNAPKEYGADSITILEGLEAVRKRPGMYIGSTGERGLHHLIWEVVDNAVDEAMAGFATRVDVKIHADGSVEVRDDGRGIPVEMHATGMPTIDVVMTQLHAGGKFDGETYAVSGGLHGVGVSVVNALSTRLEATVLRDGYEWFQYYDRSVPGKLKQGGETKETGTTIRFWADPEIFETTDYNFETVARRLQEMAFLNKGLTIELTDERVTAEEVVDDVVKDTAEAPKTADEKAAEATGPSKVKHRVFHYPGGLVDYVKHINRTKTPIQQSIIDFDGKGPGHEVEIAMQWNAGYSESVHTFANTINTHEGGTHEEGFRAALTSVVNRYAKDKKLLKDKDPNLTGDDIREGLAAVISVKVAEPQFEGQTKTKLGNTEVKSFVQKICNEQLQHWFEANPAEAKTVVNKAVSSAQARIAARKARELVRRKSATDIGGLPGKLADCRSTDPSKSELYVVEGDSAGGSAKSGRDSMFQAILPLRGKIINVEKARIDRVLKNTEVQSIITALGTGIHDEFDISKLRYHKIVLMADADVDGQHISTLLLTLLFRFMKPLVENGHIFLAQPPLYKLKWQRSEPEFAYSDRERDGLLEAGRAAGKKINVDDGIQRYKGLGEMDAKELWETTMDPSVRVLRQVTLDDAAAADELFSILMGEDVEARRSFITRNAKDVRFLDV

> <PDB ID(s) of Target Chain>
4BAE

> <UniProt (SwissProt) Recommended Name of Target Chain>
DNA gyrase subunit B

> <UniProt (SwissProt) Entry Name of Target Chain>
GYRB_MYCSM

> <UniProt (SwissProt) Primary ID of Target Chain>
P0C559

> <UniProt (SwissProt) Secondary ID(s) of Target Chain>
P48355,Q59555

> <UniProt (SwissProt) Alternative ID(s) of Target Chain>


> <UniProt (TrEMBL) Submitted Name of Target Chain>


> <UniProt (TrEMBL) Entry Name of Target Chain>


> <UniProt (TrEMBL) Primary ID of Target Chain>


> <UniProt (TrEMBL) Secondary ID(s) of Target Chain>


> <UniProt (TrEMBL) Alternative ID(s) of Target Chain>


$$$$

  SciTegic09291413392D

 30 33  0  0  0  0            999 V2000
   23.0918   -7.7138    0.0000 C   0  0
   25.2159   -6.4838    0.0000 C   0  0
   25.2148   -7.3034    0.0000 C   0  0
   25.9228   -7.7123    0.0000 N   0  0
   25.9211   -6.0750    0.0000 C   0  0
   26.6297   -6.4802    0.0000 C   0  0
   26.6345   -7.3034    0.0000 C   0  0
   27.4189   -7.5532    0.0000 S   0  0
   27.8989   -6.8844    0.0000 C   0  0
   27.4111   -6.2213    0.0000 N   0  0
   24.5102   -6.0756    0.0000 C   0  0
   24.5114   -5.2573    0.0000 C   0  0
   23.8044   -4.8489    0.0000 N   0  0
   23.0958   -5.2578    0.0000 C   0  0
   23.0986   -6.0792    0.0000 C   0  0
   28.7161   -6.8796    0.0000 N   0  0
   29.1205   -6.1695    0.0000 C   0  0
   29.9377   -6.1646    0.0000 N   0  0
   28.7077   -5.4642    0.0000 O   0  0
   30.3421   -5.4545    0.0000 C   0  0
   31.1592   -5.4497    0.0000 C   0  0
   23.8000   -6.4851    0.0000 C   0  0
   24.5068   -7.7114    0.0000 O   0  0
   23.7994   -7.3023    0.0000 C   0  0
   22.3429   -7.3833    0.0000 C   0  0
   21.7972   -7.9934    0.0000 C   0  0
   22.2088   -8.7010    0.0000 O   0  0
   23.0088   -8.5282    0.0000 C   0  0
   22.3929   -6.4886    0.0000 C   0  0
   21.6857   -6.8980    0.0000 N   0  0
  2  3  2  0
  3  4  1  0
  4  7  2  0
  6  5  2  0
  5  2  1  0
  6  7  1  0
  7  8  1  0
  8  9  1  0
  9 10  2  0
 10  6  1  0
 11 12  2  0
 12 13  1  0
 13 14  2  0
 14 15  1  0
 15 22  2  0
 22 11  1  0
  2 11  1  0
  9 16  1  0
 16 17  1  0
 17 18  1  0
 17 19  2  0
 18 20  1  0
 20 21  1  0
  3 23  1  0
 23 24  1  0
 24  1  1  0
  1 25  1  0
 25 26  1  0
 26 27  1  0
 27 28  1  0
 28  1  1  0
 29 30  3  0
 15 29  1  0
M  END
> <From> 
www.bindingDB.org

> <BindingDB Reactant_set_id>
50089934

> <Ligand InChI>
InChI=1S/C20H20N6O3S/c1-2-23-19(27)26-20-24-16-6-15(14-5-13(7-21)8-22-9-14)17(25-18(16)30-20)29-11-12-3-4-28-10-12/h5-6,8-9,12H,2-4,10-11H2,1H3,(H2,23,24,26,27)

> <Ligand InChI Key>
HHDMFSYRLQUHAT-UHFFFAOYSA-N

> <BindingDB MonomerID>
50010367

> <BindingDB Ligand Name>
CHEMBL3263609

> <Target Name Assigned by Curator or DataSource>
DNA gyrase subunit B

> <Target Source Organism According to Curator or DataSource>


> <Ki (nM)>


> <IC50 (nM)>
 12

> <Kd (nM)>


> <EC50 (nM)>


> <kon (M-1-s-1)>


> <koff (s-1)>


> <pH>


> <Temp C>


> <Curation/DataSource>
ChEMBL

> <Article DOI>
10.1021/jm401268f

> <PMID>
24088190

> <PubChem AID>


> <Patent Number>


> <Authors>
Ahuja, V; Ahuja, V; Basavarajappa, H; Basavarajappa, H; P, SH; P, SH; Boriack-Sjodin, PA; Boriack-Sjodin, PA; McKinney, D; McKinney, D; Ganguly, S; Ganguly, S; Kranthi, U; Kranthi, U; Gaonkar, S; Gaonkar, S; Jena, Lk; Jena, Lk; Ghorpade, SR; Ghorpade, SR; Ghosh, A; Ghosh, A; Barde, S; Barde, S; Kale, MG; Kale, MG; Koushik, K; Koushik, K; Kumar, CN; Kumar, CN; Manjunatha, MR; Manjunatha, MR; Ogg, D; Ogg, D; Panduga, V; Panduga, V; Ramya, VK; Ramya, VK; Reddy, J; Reddy, J; Kumar, KN; Kumar, KN; Giridhar, J; Giridhar, J; Rudrapatna, S; Rudrapatna, S; Sharma, S; Sharma, S; Tucker, JA; Tucker, JA; Vachaspati, P; Vachaspati, P; Waterson, D; Waterson, D; de Sousa, SM; de Sousa, SM

> <Institution>
AstraZeneca India Pvt. Ltd.

> <Link to Ligand in BindingDB>
http://www.bindingdb.org/bind/chemsearch/marvin/MolStructure.jsp?monomerid=50010367

> <Link to Ligand-Target Pair in BindingDB>
http://www.bindingdb.org/jsp/dbsearch/PrimarySearch_ki.jsp?energyterm=kJ/mole&tag=pol&polymerid=50006452&target=DNA+gyrase+subunit+B&column=ki&startPg=0&Increment=50&submit=Search

> <Link to Ligand-Target Pair in BindingDB>
http://www.bindingdb.org/jsp/dbsearch/PrimarySearch_ki.jsp?energyterm=kJ/mole&tag=r21&monomerid=50010367&enzyme=DNA+gyrase+subunit+B&column=ki&startPg=0&Increment=50&submit=Search

> <Ligand HET ID in PDB>


> <PDB ID(s) for Ligand-Target Complex>


> <PubChem CID>
59352854

> <PubChem SID>
103923181

> <ChEBI ID of Ligand>


> <ChEMBL ID of Ligand>
CHEMBL3263609

> <DrugBank ID of Ligand>


> <IUPHAR_GRAC ID of Ligand>


> <KEGG ID of Ligand>


> <ZINC ID of Ligand>
ZINC13446651

> <Number of Protein Chains in Target (>1 implies a multichain complex)>
1

> <BindingDB Target Chain Sequence>
MAAQKNNAPKEYGADSITILEGLEAVRKRPGMYIGSTGERGLHHLIWEVVDNAVDEAMAGFATRVDVKIHADGSVEVRDDGRGIPVEMHATGMPTIDVVMTQLHAGGKFDGETYAVSGGLHGVGVSVVNALSTRLEATVLRDGYEWFQYYDRSVPGKLKQGGETKETGTTIRFWADPEIFETTDYNFETVARRLQEMAFLNKGLTIELTDERVTAEEVVDDVVKDTAEAPKTADEKAAEATGPSKVKHRVFHYPGGLVDYVKHINRTKTPIQQSIIDFDGKGPGHEVEIAMQWNAGYSESVHTFANTINTHEGGTHEEGFRAALTSVVNRYAKDKKLLKDKDPNLTGDDIREGLAAVISVKVAEPQFEGQTKTKLGNTEVKSFVQKICNEQLQHWFEANPAEAKTVVNKAVSSAQARIAARKARELVRRKSATDIGGLPGKLADCRSTDPSKSELYVVEGDSAGGSAKSGRDSMFQAILPLRGKIINVEKARIDRVLKNTEVQSIITALGTGIHDEFDISKLRYHKIVLMADADVDGQHISTLLLTLLFRFMKPLVENGHIFLAQPPLYKLKWQRSEPEFAYSDRERDGLLEAGRAAGKKINVDDGIQRYKGLGEMDAKELWETTMDPSVRVLRQVTLDDAAAADELFSILMGEDVEARRSFITRNAKDVRFLDV

> <PDB ID(s) of Target Chain>
4BAE

> <UniProt (SwissProt) Recommended Name of Target Chain>
DNA gyrase subunit B

> <UniProt (SwissProt) Entry Name of Target Chain>
GYRB_MYCSM

> <UniProt (SwissProt) Primary ID of Target Chain>
P0C559

> <UniProt (SwissProt) Secondary ID(s) of Target Chain>
P48355,Q59555

> <UniProt (SwissProt) Alternative ID(s) of Target Chain>


> <UniProt (TrEMBL) Submitted Name of Target Chain>


> <UniProt (TrEMBL) Entry Name of Target Chain>


> <UniProt (TrEMBL) Primary ID of Target Chain>


> <UniProt (TrEMBL) Secondary ID(s) of Target Chain>


> <UniProt (TrEMBL) Alternative ID(s) of Target Chain>


$$$$

  SciTegic09291413392D

 27 29  0  0  0  0            999 V2000
   24.0521   -6.4415    0.0000 C   0  0
   24.0509   -7.2688    0.0000 C   0  0
   24.7657   -7.6817    0.0000 N   0  0
   24.7639   -6.0287    0.0000 C   0  0
   25.4792   -6.4379    0.0000 C   0  0
   25.4841   -7.2688    0.0000 C   0  0
   26.2760   -7.5210    0.0000 S   0  0
   26.7605   -6.8458    0.0000 C   0  0
   26.2681   -6.1765    0.0000 N   0  0
   23.3395   -6.0293    0.0000 C   0  0
   23.3408   -5.2032    0.0000 C   0  0
   22.6270   -4.7910    0.0000 C   0  0
   21.9117   -5.2037    0.0000 C   0  0
   21.9145   -6.0329    0.0000 N   0  0
   27.5855   -6.8410    0.0000 N   0  0
   27.9938   -6.1241    0.0000 C   0  0
   28.8188   -6.1191    0.0000 N   0  0
   27.5770   -5.4121    0.0000 O   0  0
   29.2270   -5.4023    0.0000 C   0  0
   30.0520   -5.3974    0.0000 C   0  0
   23.3361   -7.6807    0.0000 O   0  0
   22.6220   -7.2677    0.0000 C   0  0  2  0  0  0
   22.6227   -6.4427    0.0000 C   0  0
   21.9072   -7.6796    0.0000 C   0  0
   21.1931   -7.2666    0.0000 O   0  0
   20.4783   -7.6785    0.0000 C   0  0
   21.9035   -6.8540    0.0000 C   0  0
  1  2  2  0
  2  3  1  0
  3  6  2  0
  5  4  2  0
  4  1  1  0
  5  6  1  0
  6  7  1  0
  7  8  1  0
  8  9  2  0
  9  5  1  0
 10 11  2  0
 11 12  1  0
 12 13  2  0
 13 14  1  0
 14 23  2  0
 23 10  1  0
  1 10  1  0
  8 15  1  0
 15 16  1  0
 16 17  1  0
 16 18  2  0
 17 19  1  0
 19 20  1  0
  2 21  1  0
 21 22  1  0
 22 24  1  0
 24 25  1  0
 25 26  1  0
 22 27  1  6
M  END
> <From> 
www.bindingDB.org

> <BindingDB Reactant_set_id>
50089900

> <Ligand InChI>
InChI=1S/C18H21N5O3S/c1-4-20-17(24)23-18-21-14-8-13(12-6-5-7-19-9-12)15(22-16(14)27-18)26-11(2)10-25-3/h5-9,11H,4,10H2,1-3H3,(H2,20,21,23,24)/t11-/m0/s1

> <Ligand InChI Key>
ZYWCKTAEIKXDMD-NSHDSACASA-N

> <BindingDB MonomerID>
50010346

> <BindingDB Ligand Name>
CHEMBL3263590

> <Target Name Assigned by Curator or DataSource>
DNA gyrase subunit B

> <Target Source Organism According to Curator or DataSource>


> <Ki (nM)>


> <IC50 (nM)>
 12

> <Kd (nM)>


> <EC50 (nM)>


> <kon (M-1-s-1)>


> <koff (s-1)>


> <pH>


> <Temp C>


> <Curation/DataSource>
ChEMBL

> <Article DOI>
10.1021/jm401268f

> <PMID>
24088190

> <PubChem AID>


> <Patent Number>


> <Authors>
Ahuja, V; Ahuja, V; Basavarajappa, H; Basavarajappa, H; P, SH; P, SH; Boriack-Sjodin, PA; Boriack-Sjodin, PA; McKinney, D; McKinney, D; Ganguly, S; Ganguly, S; Kranthi, U; Kranthi, U; Gaonkar, S; Gaonkar, S; Jena, Lk; Jena, Lk; Ghorpade, SR; Ghorpade, SR; Ghosh, A; Ghosh, A; Barde, S; Barde, S; Kale, MG; Kale, MG; Koushik, K; Koushik, K; Kumar, CN; Kumar, CN; Manjunatha, MR; Manjunatha, MR; Ogg, D; Ogg, D; Panduga, V; Panduga, V; Ramya, VK; Ramya, VK; Reddy, J; Reddy, J; Kumar, KN; Kumar, KN; Giridhar, J; Giridhar, J; Rudrapatna, S; Rudrapatna, S; Sharma, S; Sharma, S; Tucker, JA; Tucker, JA; Vachaspati, P; Vachaspati, P; Waterson, D; Waterson, D; de Sousa, SM; de Sousa, SM

> <Institution>
AstraZeneca India Pvt. Ltd.

> <Link to Ligand in BindingDB>
http://www.bindingdb.org/bind/chemsearch/marvin/MolStructure.jsp?monomerid=50010346

> <Link to Ligand-Target Pair in BindingDB>
http://www.bindingdb.org/jsp/dbsearch/PrimarySearch_ki.jsp?energyterm=kJ/mole&tag=pol&polymerid=50006452&target=DNA+gyrase+subunit+B&column=ki&startPg=0&Increment=50&submit=Search

> <Link to Ligand-Target Pair in BindingDB>
http://www.bindingdb.org/jsp/dbsearch/PrimarySearch_ki.jsp?energyterm=kJ/mole&tag=r21&monomerid=50010346&enzyme=DNA+gyrase+subunit+B&column=ki&startPg=0&Increment=50&submit=Search

> <Ligand HET ID in PDB>


> <PDB ID(s) for Ligand-Target Complex>


> <PubChem CID>
72713294

> <PubChem SID>
103923160

> <ChEBI ID of Ligand>


> <ChEMBL ID of Ligand>
CHEMBL3263590

> <DrugBank ID of Ligand>


> <IUPHAR_GRAC ID of Ligand>


> <KEGG ID of Ligand>


> <ZINC ID of Ligand>
ZINC26968199

> <Number of Protein Chains in Target (>1 implies a multichain complex)>
1

> <BindingDB Target Chain Sequence>
MAAQKNNAPKEYGADSITILEGLEAVRKRPGMYIGSTGERGLHHLIWEVVDNAVDEAMAGFATRVDVKIHADGSVEVRDDGRGIPVEMHATGMPTIDVVMTQLHAGGKFDGETYAVSGGLHGVGVSVVNALSTRLEATVLRDGYEWFQYYDRSVPGKLKQGGETKETGTTIRFWADPEIFETTDYNFETVARRLQEMAFLNKGLTIELTDERVTAEEVVDDVVKDTAEAPKTADEKAAEATGPSKVKHRVFHYPGGLVDYVKHINRTKTPIQQSIIDFDGKGPGHEVEIAMQWNAGYSESVHTFANTINTHEGGTHEEGFRAALTSVVNRYAKDKKLLKDKDPNLTGDDIREGLAAVISVKVAEPQFEGQTKTKLGNTEVKSFVQKICNEQLQHWFEANPAEAKTVVNKAVSSAQARIAARKARELVRRKSATDIGGLPGKLADCRSTDPSKSELYVVEGDSAGGSAKSGRDSMFQAILPLRGKIINVEKARIDRVLKNTEVQSIITALGTGIHDEFDISKLRYHKIVLMADADVDGQHISTLLLTLLFRFMKPLVENGHIFLAQPPLYKLKWQRSEPEFAYSDRERDGLLEAGRAAGKKINVDDGIQRYKGLGEMDAKELWETTMDPSVRVLRQVTLDDAAAADELFSILMGEDVEARRSFITRNAKDVRFLDV

> <PDB ID(s) of Target Chain>
4BAE

> <UniProt (SwissProt) Recommended Name of Target Chain>
DNA gyrase subunit B

> <UniProt (SwissProt) Entry Name of Target Chain>
GYRB_MYCSM

> <UniProt (SwissProt) Primary ID of Target Chain>
P0C559

> <UniProt (SwissProt) Secondary ID(s) of Target Chain>
P48355,Q59555

> <UniProt (SwissProt) Alternative ID(s) of Target Chain>


> <UniProt (TrEMBL) Submitted Name of Target Chain>


> <UniProt (TrEMBL) Entry Name of Target Chain>


> <UniProt (TrEMBL) Primary ID of Target Chain>


> <UniProt (TrEMBL) Secondary ID(s) of Target Chain>


> <UniProt (TrEMBL) Alternative ID(s) of Target Chain>


$$$$

  SciTegic12201612272D

 35 39  0  0  0  0            999 V2000
    7.4189    7.0332    0.0000 C   0  0
    7.5821    5.5421    0.0000 C   0  0
    6.3724    4.6552    0.0000 C   0  0
    5.0044    5.2582    0.0000 C   0  0
    4.8363    6.7505    0.0000 C   0  0
    6.0460    7.6374    0.0000 N   0  0
    8.6275    7.9231    0.0000 C   0  0
    9.7266    7.4417    0.0000 O   0  0
    8.4620    9.4148    0.0000 N   0  0
    3.6243    2.9682    0.0000 S   0  0
    3.7308    4.4645    0.0000 C   0  0
    2.3406    5.0280    0.0000 N   0  0
    1.3751    3.8801    0.0000 C   0  0
    2.1749    2.6315    0.0000 C   0  0
    0.2917   -0.7475    0.0000 C   0  0
    0.2917    0.7475    0.0000 C   0  0
   -1.0028    1.5132    0.0000 C   0  0
   -2.3155    0.7475    0.0000 C   0  0
   -2.3155   -0.7475    0.0000 C   0  0
   -1.0028   -1.5132    0.0000 N   0  0
    2.5889    0.0182    0.0000 N   0  0
    1.7138   -1.2033    0.0000 N   0  0
    1.7138    1.2033    0.0000 C   0  0
   -0.9971   -3.0138    0.0000 C   0  0
   -2.2935   -3.7700    0.0000 C   0  0
   -2.2889   -4.9699    0.0000 C   0  0
   -3.3560   -1.3452    0.0000 O   0  0
    9.6705   10.3047    0.0000 C   0  0
    9.5051   11.7964    0.0000 C   0  0
   13.1331   14.4602    0.0000 O   0  0
   11.7601   15.0643    0.0000 C   0  0
   10.5504   14.1774    0.0000 C   0  0
   10.7136   12.6863    0.0000 N   0  0
   12.0867   12.0822    0.0000 C   0  0
   13.2963   12.9691    0.0000 C   0  0
  1  2  1  0
  2  3  2  0
  3  4  1  0
  4  5  2  0
  5  6  1  0
  1  6  2  0
  1  7  1  0
  7  8  2  0
  7  9  1  0
 10 11  1  0
 11 12  2  0
 12 13  1  0
 13 14  2  0
 10 14  1  0
 15 16  2  0
 16 17  1  0
 17 18  2  0
 18 19  1  0
 19 20  1  0
 15 20  1  0
 21 22  1  0
 21 23  2  0
 15 22  1  0
 16 23  1  0
 24 25  1  0
 25 26  1  0
 20 24  1  0
 19 27  2  0
 14 23  1  0
  4 11  1  0
 28 29  1  0
 30 31  1  0
 31 32  1  0
 32 33  1  0
 33 34  1  0
 34 35  1  0
 30 35  1  0
 29 33  1  0
  9 28  1  0
M  END
> <From> 
www.bindingDB.org

> <BindingDB Reactant_set_id>
50498683

> <Ligand InChI>
InChI=1S/C24H27N7O3S/c1-2-8-31-20(32)6-4-17-21(28-29-22(17)31)19-15-27-24(35-19)16-3-5-18(26-14-16)23(33)25-7-9-30-10-12-34-13-11-30/h3-6,14-15H,2,7-13H2,1H3,(H,25,33)(H,28,29)

> <Ligand InChI Key>
JRFZLLFSYNBRHC-UHFFFAOYSA-N

> <BindingDB MonomerID>
50173872

> <BindingDB Ligand Name>
CHEMBL3810056

> <Target Name Assigned by Curator or DataSource>
DNA gyrase

> <Target Source Organism According to Curator or DataSource>
Staphylococcus aureus

> <Ki (nM)>


> <IC50 (nM)>
 13

> <Kd (nM)>


> <EC50 (nM)>


> <kon (M-1-s-1)>


> <koff (s-1)>


> <pH>


> <Temp C>


> <Curation/DataSource>
ChEMBL

> <Article DOI>
10.1021/acsmedchemlett.5b00368

> <PMID>
27096044

> <PubChem AID>


> <Patent Number>


> <Authors>
Cross, JB; Zhang, J; Yang, Q; Mesleh, MF; Romero, JA; Wang, B; Bevan, D; Poutsiaka, KM; Epie, F; Moy, T; Daniel, A; Shotwell, J; Chamberlain, B; Carter, N; Andersen, O; Barker, J; Ryan, MD; Metcalf, CA; Silverman, J; Nguyen, K; Lippa, B; Dolle, RE

> <Institution>
Cubist Pharmaceuticals, Inc.

> <Link to Ligand in BindingDB>
http://www.bindingdb.org/bind/chemsearch/marvin/MolStructure.jsp?monomerid=50173872

> <Link to Ligand-Target Pair in BindingDB>
http://www.bindingdb.org/jsp/dbsearch/PrimarySearch_ki.jsp?energyterm=kJ/mole&tag=pol&polymerid=2626&target=DNA+gyrase&column=ki&startPg=0&Increment=50&submit=Search

> <Link to Ligand-Target Pair in BindingDB>
http://www.bindingdb.org/jsp/dbsearch/PrimarySearch_ki.jsp?energyterm=kJ/mole&tag=r21&monomerid=50173872&enzyme=DNA+gyrase&column=ki&startPg=0&Increment=50&submit=Search

> <Ligand HET ID in PDB>


> <PDB ID(s) for Ligand-Target Complex>


> <PubChem CID>
127045390

> <PubChem SID>
346548891

> <ChEBI ID of Ligand>


> <ChEMBL ID of Ligand>


> <DrugBank ID of Ligand>


> <IUPHAR_GRAC ID of Ligand>


> <KEGG ID of Ligand>


> <ZINC ID of Ligand>


> <Number of Protein Chains in Target (>1 implies a multichain complex)>
1

> <BindingDB Target Chain Sequence>
MVTALSDVNNTDNYGAGQIQVLEGLEAVRKRPGMYIGSTSERGLHHLVWEIVDNSIDEALAGYANQIEVVIEKDNWIKVTDNGRGIPVDIQEKMGRPAVEVILTVLHAGGKFGGGGYKVSGGLHGVGSSVVNALSQDLEVYVHRNETIYHQAYKKGVPQFDLKEVGTTDKTGTVIRFKADGEIFTETTVYNYETLQQRIRELAFLNKGIQITLRDERDEENVREDSYHYEGGIKSYVELLNENKEPIHDEPIYIHQSKDDIEVEIAIQYNSGYATNLLTYANNIHTYEGGTHEDGFKRALTRVLNSYGLSSKIMKEEKDRLSGEDTREGMTAIISIKHGDPQFEGQTKTKLGNSEVRQVVDKLFSEHFERFLYENPQVARTVVEKGIMAARARVAAKKAREVTRRKSALDVASLPGKLADCSSKSPEECEIFLVEGDSAGGSTKSGRDSRTQAILPLRGKILNVEKARLDRILNNNEIRQMITAFGTGIGGDFDLAKARYHKIVIMTDADVDGAHIRTLLLTFFYRFMRPLIEAGYVYIAQPPLYKLTQGKQKYYVYNDRELDKLKSELNPTPKWSIARYKGLGEMNADQLWETTMNPEHRALLQVKLEDAIEADQTFEMLMGDVVENRRQFIEDNAVYANLDF

> <PDB ID(s) of Target Chain>


> <UniProt (SwissProt) Recommended Name of Target Chain>
DNA gyrase subunit B

> <UniProt (SwissProt) Entry Name of Target Chain>
GYRB_STAAU

> <UniProt (SwissProt) Primary ID of Target Chain>
P0A0K8

> <UniProt (SwissProt) Secondary ID(s) of Target Chain>
P20832

> <UniProt (SwissProt) Alternative ID(s) of Target Chain>


> <UniProt (TrEMBL) Submitted Name of Target Chain>


> <UniProt (TrEMBL) Entry Name of Target Chain>


> <UniProt (TrEMBL) Primary ID of Target Chain>


> <UniProt (TrEMBL) Secondary ID(s) of Target Chain>


> <UniProt (TrEMBL) Alternative ID(s) of Target Chain>


$$$$

  SciTegic09291413392D

 27 30  0  0  0  0            999 V2000
   22.6858  -10.0498    0.0000 C   0  0
   22.6847  -10.8772    0.0000 C   0  0
   23.3994  -11.2900    0.0000 N   0  0
   23.3977   -9.6371    0.0000 C   0  0
   24.1131  -10.0462    0.0000 C   0  0
   24.1179  -10.8772    0.0000 C   0  0
   24.9098  -11.1294    0.0000 S   0  0
   25.3944  -10.4542    0.0000 C   0  0
   24.9019   -9.7848    0.0000 N   0  0
   21.9733   -9.6377    0.0000 C   0  0
   21.9746   -8.8116    0.0000 C   0  0
   21.2608   -8.3993    0.0000 C   0  0
   20.5454   -8.8121    0.0000 C   0  0
   20.5483   -9.6414    0.0000 N   0  0
   26.2194  -10.4494    0.0000 N   0  0
   26.6276   -9.7325    0.0000 C   0  0
   27.4525   -9.7276    0.0000 N   0  0
   26.2109   -9.0205    0.0000 O   0  0
   27.8609   -9.0107    0.0000 C   0  0
   28.6858   -9.0058    0.0000 C   0  0
   21.9699  -11.2891    0.0000 O   0  0
   21.2564  -10.0511    0.0000 C   0  0
   21.9692  -12.1141    0.0000 C   0  0  2  0  0  0
   21.3051  -12.5982    0.0000 C   0  0
   21.5594  -13.3830    0.0000 C   0  0
   22.3844  -13.3837    0.0000 O   0  0
   22.6398  -12.5993    0.0000 C   0  0
  1  2  2  0
  2  3  1  0
  3  6  2  0
  5  4  2  0
  4  1  1  0
  5  6  1  0
  6  7  1  0
  7  8  1  0
  8  9  2  0
  9  5  1  0
 10 11  2  0
 11 12  1  0
 12 13  2  0
 13 14  1  0
 14 22  2  0
 22 10  1  0
  1 10  1  0
  8 15  1  0
 15 16  1  0
 16 17  1  0
 16 18  2  0
 17 19  1  0
 19 20  1  0
  2 21  1  0
 23 21  1  1
 23 24  1  0
 24 25  1  0
 25 26  1  0
 26 27  1  0
 27 23  1  0
M  END
> <From> 
www.bindingDB.org

> <BindingDB Reactant_set_id>
50089905

> <Ligand InChI>
InChI=1S/C18H19N5O3S/c1-2-20-17(24)23-18-21-14-8-13(11-4-3-6-19-9-11)15(22-16(14)27-18)26-12-5-7-25-10-12/h3-4,6,8-9,12H,2,5,7,10H2,1H3,(H2,20,21,23,24)/t12-/m1/s1

> <Ligand InChI Key>
BABKJKPOVFNQHK-GFCCVEGCSA-N

> <BindingDB MonomerID>
50010349

> <BindingDB Ligand Name>
CHEMBL3263593

> <Target Name Assigned by Curator or DataSource>
DNA gyrase subunit B

> <Target Source Organism According to Curator or DataSource>


> <Ki (nM)>


> <IC50 (nM)>
 13

> <Kd (nM)>


> <EC50 (nM)>


> <kon (M-1-s-1)>


> <koff (s-1)>


> <pH>


> <Temp C>


> <Curation/DataSource>
ChEMBL

> <Article DOI>
10.1021/jm401268f

> <PMID>
24088190

> <PubChem AID>


> <Patent Number>


> <Authors>
Ahuja, V; Ahuja, V; Basavarajappa, H; Basavarajappa, H; P, SH; P, SH; Boriack-Sjodin, PA; Boriack-Sjodin, PA; McKinney, D; McKinney, D; Ganguly, S; Ganguly, S; Kranthi, U; Kranthi, U; Gaonkar, S; Gaonkar, S; Jena, Lk; Jena, Lk; Ghorpade, SR; Ghorpade, SR; Ghosh, A; Ghosh, A; Barde, S; Barde, S; Kale, MG; Kale, MG; Koushik, K; Koushik, K; Kumar, CN; Kumar, CN; Manjunatha, MR; Manjunatha, MR; Ogg, D; Ogg, D; Panduga, V; Panduga, V; Ramya, VK; Ramya, VK; Reddy, J; Reddy, J; Kumar, KN; Kumar, KN; Giridhar, J; Giridhar, J; Rudrapatna, S; Rudrapatna, S; Sharma, S; Sharma, S; Tucker, JA; Tucker, JA; Vachaspati, P; Vachaspati, P; Waterson, D; Waterson, D; de Sousa, SM; de Sousa, SM

> <Institution>
AstraZeneca India Pvt. Ltd.

> <Link to Ligand in BindingDB>
http://www.bindingdb.org/bind/chemsearch/marvin/MolStructure.jsp?monomerid=50010349

> <Link to Ligand-Target Pair in BindingDB>
http://www.bindingdb.org/jsp/dbsearch/PrimarySearch_ki.jsp?energyterm=kJ/mole&tag=pol&polymerid=50006452&target=DNA+gyrase+subunit+B&column=ki&startPg=0&Increment=50&submit=Search

> <Link to Ligand-Target Pair in BindingDB>
http://www.bindingdb.org/jsp/dbsearch/PrimarySearch_ki.jsp?energyterm=kJ/mole&tag=r21&monomerid=50010349&enzyme=DNA+gyrase+subunit+B&column=ki&startPg=0&Increment=50&submit=Search

> <Ligand HET ID in PDB>


> <PDB ID(s) for Ligand-Target Complex>


> <PubChem CID>
72713296

> <PubChem SID>
103923163

> <ChEBI ID of Ligand>


> <ChEMBL ID of Ligand>
CHEMBL3263593

> <DrugBank ID of Ligand>


> <IUPHAR_GRAC ID of Ligand>


> <KEGG ID of Ligand>


> <ZINC ID of Ligand>
ZINC26964652

> <Number of Protein Chains in Target (>1 implies a multichain complex)>
1

> <BindingDB Target Chain Sequence>
MAAQKNNAPKEYGADSITILEGLEAVRKRPGMYIGSTGERGLHHLIWEVVDNAVDEAMAGFATRVDVKIHADGSVEVRDDGRGIPVEMHATGMPTIDVVMTQLHAGGKFDGETYAVSGGLHGVGVSVVNALSTRLEATVLRDGYEWFQYYDRSVPGKLKQGGETKETGTTIRFWADPEIFETTDYNFETVARRLQEMAFLNKGLTIELTDERVTAEEVVDDVVKDTAEAPKTADEKAAEATGPSKVKHRVFHYPGGLVDYVKHINRTKTPIQQSIIDFDGKGPGHEVEIAMQWNAGYSESVHTFANTINTHEGGTHEEGFRAALTSVVNRYAKDKKLLKDKDPNLTGDDIREGLAAVISVKVAEPQFEGQTKTKLGNTEVKSFVQKICNEQLQHWFEANPAEAKTVVNKAVSSAQARIAARKARELVRRKSATDIGGLPGKLADCRSTDPSKSELYVVEGDSAGGSAKSGRDSMFQAILPLRGKIINVEKARIDRVLKNTEVQSIITALGTGIHDEFDISKLRYHKIVLMADADVDGQHISTLLLTLLFRFMKPLVENGHIFLAQPPLYKLKWQRSEPEFAYSDRERDGLLEAGRAAGKKINVDDGIQRYKGLGEMDAKELWETTMDPSVRVLRQVTLDDAAAADELFSILMGEDVEARRSFITRNAKDVRFLDV

> <PDB ID(s) of Target Chain>
4BAE

> <UniProt (SwissProt) Recommended Name of Target Chain>
DNA gyrase subunit B

> <UniProt (SwissProt) Entry Name of Target Chain>
GYRB_MYCSM

> <UniProt (SwissProt) Primary ID of Target Chain>
P0C559

> <UniProt (SwissProt) Secondary ID(s) of Target Chain>
P48355,Q59555

> <UniProt (SwissProt) Alternative ID(s) of Target Chain>


> <UniProt (TrEMBL) Submitted Name of Target Chain>


> <UniProt (TrEMBL) Entry Name of Target Chain>


> <UniProt (TrEMBL) Primary ID of Target Chain>


> <UniProt (TrEMBL) Secondary ID(s) of Target Chain>


> <UniProt (TrEMBL) Alternative ID(s) of Target Chain>


$$$$

  SciTegic12201612272D

 29 32  0  0  0  0            999 V2000
    1.3751    3.8801    0.0000 S   0  0
    2.1749    2.6315    0.0000 C   0  0
    3.6243    2.9682    0.0000 N   0  0
    3.7308    4.4644    0.0000 C   0  0
    2.3406    5.0280    0.0000 C   0  0
    5.0039    5.2543    0.0000 C   0  0
    4.9656    6.4536    0.0000 O   0  0
    6.3272    4.5462    0.0000 N   0  0
    2.9755    7.5994    0.0000 C   0  0
    1.9793    6.4846    0.0000 C   0  0
    0.5081    6.7858    0.0000 C   0  0
    0.0384    8.2104    0.0000 C   0  0
    1.0373    9.3295    0.0000 C   0  0
    2.5059    9.0239    0.0000 N   0  0
    0.2917   -0.7475    0.0000 C   0  0
    0.2917    0.7475    0.0000 C   0  0
   -1.0028    1.5132    0.0000 C   0  0
   -2.3155    0.7475    0.0000 C   0  0
   -2.3155   -0.7475    0.0000 C   0  0
   -1.0028   -1.5132    0.0000 N   0  0
    2.5889    0.0182    0.0000 N   0  0
    1.7138   -1.2033    0.0000 N   0  0
    1.7138    1.2033    0.0000 C   0  0
   -0.9971   -3.0138    0.0000 C   0  0
   -2.2935   -3.7700    0.0000 C   0  0
   -2.2889   -4.9699    0.0000 C   0  0
   -3.3560   -1.3452    0.0000 O   0  0
    7.3469    5.1788    0.0000 C   0  0
    6.3656    3.3468    0.0000 C   0  0
  1  2  1  0
  2  3  2  0
  3  4  1  0
  4  5  2  0
  1  5  1  0
  6  7  2  0
  6  8  1  0
  4  6  1  0
  9 10  1  0
 10 11  2  0
 11 12  1  0
 12 13  2  0
 13 14  1  0
  9 14  2  0
  5 10  1  0
 15 16  2  0
 16 17  1  0
 17 18  2  0
 18 19  1  0
 19 20  1  0
 15 20  1  0
 21 22  1  0
 21 23  2  0
 15 22  1  0
 16 23  1  0
 24 25  1  0
 25 26  1  0
 20 24  1  0
 19 27  2  0
  2 23  1  0
  8 28  1  0
  8 29  1  0
M  END
> <From> 
www.bindingDB.org

> <BindingDB Reactant_set_id>
50498687

> <Ligand InChI>
InChI=1S/C20H20N6O2S/c1-4-10-26-14(27)8-7-13-15(23-24-18(13)26)19-22-16(20(28)25(2)3)17(29-19)12-6-5-9-21-11-12/h5-9,11H,4,10H2,1-3H3,(H,23,24)

> <Ligand InChI Key>
GTYFFCZDHXHKMT-UHFFFAOYSA-N

> <BindingDB MonomerID>
50173876

> <BindingDB Ligand Name>
CHEMBL3808760

> <Target Name Assigned by Curator or DataSource>
DNA gyrase

> <Target Source Organism According to Curator or DataSource>
Staphylococcus aureus

> <Ki (nM)>


> <IC50 (nM)>
 13

> <Kd (nM)>


> <EC50 (nM)>


> <kon (M-1-s-1)>


> <koff (s-1)>


> <pH>


> <Temp C>


> <Curation/DataSource>
ChEMBL

> <Article DOI>
10.1021/acsmedchemlett.5b00368

> <PMID>
27096044

> <PubChem AID>


> <Patent Number>


> <Authors>
Cross, JB; Zhang, J; Yang, Q; Mesleh, MF; Romero, JA; Wang, B; Bevan, D; Poutsiaka, KM; Epie, F; Moy, T; Daniel, A; Shotwell, J; Chamberlain, B; Carter, N; Andersen, O; Barker, J; Ryan, MD; Metcalf, CA; Silverman, J; Nguyen, K; Lippa, B; Dolle, RE

> <Institution>
Cubist Pharmaceuticals, Inc.

> <Link to Ligand in BindingDB>
http://www.bindingdb.org/bind/chemsearch/marvin/MolStructure.jsp?monomerid=50173876

> <Link to Ligand-Target Pair in BindingDB>
http://www.bindingdb.org/jsp/dbsearch/PrimarySearch_ki.jsp?energyterm=kJ/mole&tag=pol&polymerid=2626&target=DNA+gyrase&column=ki&startPg=0&Increment=50&submit=Search

> <Link to Ligand-Target Pair in BindingDB>
http://www.bindingdb.org/jsp/dbsearch/PrimarySearch_ki.jsp?energyterm=kJ/mole&tag=r21&monomerid=50173876&enzyme=DNA+gyrase&column=ki&startPg=0&Increment=50&submit=Search

> <Ligand HET ID in PDB>


> <PDB ID(s) for Ligand-Target Complex>


> <PubChem CID>
127045546

> <PubChem SID>
346548895

> <ChEBI ID of Ligand>


> <ChEMBL ID of Ligand>


> <DrugBank ID of Ligand>


> <IUPHAR_GRAC ID of Ligand>


> <KEGG ID of Ligand>


> <ZINC ID of Ligand>


> <Number of Protein Chains in Target (>1 implies a multichain complex)>
1

> <BindingDB Target Chain Sequence>
MVTALSDVNNTDNYGAGQIQVLEGLEAVRKRPGMYIGSTSERGLHHLVWEIVDNSIDEALAGYANQIEVVIEKDNWIKVTDNGRGIPVDIQEKMGRPAVEVILTVLHAGGKFGGGGYKVSGGLHGVGSSVVNALSQDLEVYVHRNETIYHQAYKKGVPQFDLKEVGTTDKTGTVIRFKADGEIFTETTVYNYETLQQRIRELAFLNKGIQITLRDERDEENVREDSYHYEGGIKSYVELLNENKEPIHDEPIYIHQSKDDIEVEIAIQYNSGYATNLLTYANNIHTYEGGTHEDGFKRALTRVLNSYGLSSKIMKEEKDRLSGEDTREGMTAIISIKHGDPQFEGQTKTKLGNSEVRQVVDKLFSEHFERFLYENPQVARTVVEKGIMAARARVAAKKAREVTRRKSALDVASLPGKLADCSSKSPEECEIFLVEGDSAGGSTKSGRDSRTQAILPLRGKILNVEKARLDRILNNNEIRQMITAFGTGIGGDFDLAKARYHKIVIMTDADVDGAHIRTLLLTFFYRFMRPLIEAGYVYIAQPPLYKLTQGKQKYYVYNDRELDKLKSELNPTPKWSIARYKGLGEMNADQLWETTMNPEHRALLQVKLEDAIEADQTFEMLMGDVVENRRQFIEDNAVYANLDF

> <PDB ID(s) of Target Chain>


> <UniProt (SwissProt) Recommended Name of Target Chain>
DNA gyrase subunit B

> <UniProt (SwissProt) Entry Name of Target Chain>
GYRB_STAAU

> <UniProt (SwissProt) Primary ID of Target Chain>
P0A0K8

> <UniProt (SwissProt) Secondary ID(s) of Target Chain>
P20832

> <UniProt (SwissProt) Alternative ID(s) of Target Chain>


> <UniProt (TrEMBL) Submitted Name of Target Chain>


> <UniProt (TrEMBL) Entry Name of Target Chain>


> <UniProt (TrEMBL) Primary ID of Target Chain>


> <UniProt (TrEMBL) Secondary ID(s) of Target Chain>


> <UniProt (TrEMBL) Alternative ID(s) of Target Chain>


$$$$

  Mrv0541 11241420052D          

 29 32  0  0  0  0            999 V2000
    3.3735  -24.9122    0.0000 C   0  0  0  0  0  0  0  0  0  0  0  0
    3.3724  -25.7396    0.0000 C   0  0  0  0  0  0  0  0  0  0  0  0
    4.0871  -26.1525    0.0000 N   0  0  0  0  0  0  0  0  0  0  0  0
    4.0853  -24.4994    0.0000 C   0  0  0  0  0  0  0  0  0  0  0  0
    2.6589  -24.4998    0.0000 C   0  0  0  0  0  0  0  0  0  0  0  0
    2.6622  -23.6739    0.0000 C   0  0  0  0  0  0  0  0  0  0  0  0
    1.9485  -23.2617    0.0000 N   0  0  0  0  0  0  0  0  0  0  0  0
    1.2332  -23.6744    0.0000 C   0  0  0  0  0  0  0  0  0  0  0  0
    1.2360  -24.5037    0.0000 C   0  0  0  0  0  0  0  0  0  0  0  0
    1.9503  -24.9121    0.0000 C   0  0  0  0  0  0  0  0  0  0  0  0
    4.8008  -24.9086    0.0000 C   0  0  0  0  0  0  0  0  0  0  0  0
    4.8010  -25.7396    0.0000 C   0  0  0  0  0  0  0  0  0  0  0  0
    5.5915  -25.9962    0.0000 S   0  0  0  0  0  0  0  0  0  0  0  0
    6.0798  -25.3237    0.0000 C   0  0  0  0  0  0  0  0  0  0  0  0
    5.5911  -24.6516    0.0000 N   0  0  0  0  0  0  0  0  0  0  0  0
    6.9048  -25.3234    0.0000 N   0  0  0  0  0  0  0  0  0  0  0  0
    7.3170  -24.6088    0.0000 C   0  0  0  0  0  0  0  0  0  0  0  0
    8.1420  -24.6085    0.0000 O   0  0  0  0  0  0  0  0  0  0  0  0
    6.9043  -23.8945    0.0000 N   0  0  0  0  0  0  0  0  0  0  0  0
    7.3166  -23.1799    0.0000 C   0  0  0  0  0  0  0  0  0  0  0  0
    6.9038  -22.4655    0.0000 C   0  0  0  0  0  0  0  0  0  0  0  0
    2.6576  -26.1514    0.0000 O   0  0  0  0  0  0  0  0  0  0  0  0
    4.0874  -26.9775    0.0000 C   0  0  0  0  0  0  0  0  0  0  0  0
    3.3731  -27.3901    0.0000 C   0  0  0  0  0  0  0  0  0  0  0  0
    2.6626  -26.9750    0.0000 C   0  0  0  0  0  0  0  0  0  0  0  0
    1.9504  -27.3842    0.0000 C   0  0  0  0  0  0  0  0  0  0  0  0
    1.9464  -28.2096    0.0000 O   0  0  0  0  0  0  0  0  0  0  0  0
    2.6608  -28.6240    0.0000 C   0  0  0  0  0  0  0  0  0  0  0  0
    3.3792  -28.2132    0.0000 C   0  0  0  0  0  0  0  0  0  0  0  0
  1  2  1  0  0  0  0
  2  3  1  0  0  0  0
  3 12  1  0  0  0  0
 11  4  1  0  0  0  0
  4  1  2  0  0  0  0
  1  5  1  0  0  0  0
  5  6  2  0  0  0  0
  6  7  1  0  0  0  0
  7  8  2  0  0  0  0
  8  9  1  0  0  0  0
  9 10  2  0  0  0  0
 10  5  1  0  0  0  0
 11 12  2  0  0  0  0
 12 13  1  0  0  0  0
 13 14  1  0  0  0  0
 14 15  2  0  0  0  0
 15 11  1  0  0  0  0
 14 16  1  0  0  0  0
 16 17  1  0  0  0  0
 17 18  2  0  0  0  0
 17 19  1  0  0  0  0
 19 20  1  0  0  0  0
 20 21  1  0  0  0  0
  2 22  2  0  0  0  0
  3 23  1  0  0  0  0
 23 24  1  0  0  0  0
 24 25  1  0  0  0  0
 24 29  1  0  0  0  0
 25 26  1  0  0  0  0
 26 27  1  0  0  0  0
 27 28  1  0  0  0  0
 28 29  1  0  0  0  0
M  END
> <From> 
www.bindingDB.org

> <BindingDB Reactant_set_id>
51091623

> <Ligand InChI>
InChI=1S/C20H23N5O3S/c1-2-22-19(27)24-20-23-16-10-15(14-4-3-7-21-11-14)17(26)25(18(16)29-20)12-13-5-8-28-9-6-13/h3-4,7,10-11,13H,2,5-6,8-9,12H2,1H3,(H2,22,23,24,27)

> <Ligand InChI Key>
NPZXFMLRVAYQJZ-UHFFFAOYSA-N

> <BindingDB MonomerID>
50447311

> <BindingDB Ligand Name>
CHEMBL3114223

> <Target Name Assigned by Curator or DataSource>
DNA gyrase subunit B

> <Target Source Organism According to Curator or DataSource>


> <Ki (nM)>


> <IC50 (nM)>
 14

> <Kd (nM)>


> <EC50 (nM)>


> <kon (M-1-s-1)>


> <koff (s-1)>


> <pH>


> <Temp C>


> <Curation/DataSource>
ChEMBL

> <Article DOI>
10.1016/j.bmcl.2013.12.080

> <PMID>
24405701

> <PubChem AID>


> <Patent Number>


> <Authors>
Kale, RR; Kale, MG; Waterson, D; Raichurkar, A; Hameed, SP; Manjunatha, MR; Kishore Reddy, BK; Malolanarasimhan, K; Shinde, V; Koushik, K; Jena, LK; Menasinakai, S; Humnabadkar, V; Madhavapeddi, P; Basavarajappa, H; Sharma, S; Nandishaiah, R; Mahesh Kumar, KN; Ganguly, S; Ahuja, V; Gaonkar, S; Naveen Kumar, CN; Ogg, D; Boriack-Sjodin, PA; Sambandamurthy, VK; de Sousa, SM; Ghorpade, SR

> <Institution>
AstraZeneca

> <Link to Ligand in BindingDB>
http://www.bindingdb.org/bind/chemsearch/marvin/MolStructure.jsp?monomerid=50447311

> <Link to Ligand-Target Pair in BindingDB>
http://www.bindingdb.org/jsp/dbsearch/PrimarySearch_ki.jsp?energyterm=kJ/mole&tag=pol&polymerid=50006452&target=DNA+gyrase+subunit+B&column=ki&startPg=0&Increment=50&submit=Search

> <Link to Ligand-Target Pair in BindingDB>
http://www.bindingdb.org/jsp/dbsearch/PrimarySearch_ki.jsp?energyterm=kJ/mole&tag=r21&monomerid=50447311&enzyme=DNA+gyrase+subunit+B&column=ki&startPg=0&Increment=50&submit=Search

> <Ligand HET ID in PDB>


> <PDB ID(s) for Ligand-Target Complex>


> <PubChem CID>
76310502

> <PubChem SID>
194945207

> <ChEBI ID of Ligand>


> <ChEMBL ID of Ligand>
CHEMBL3114223

> <DrugBank ID of Ligand>


> <IUPHAR_GRAC ID of Ligand>


> <KEGG ID of Ligand>


> <ZINC ID of Ligand>


> <Number of Protein Chains in Target (>1 implies a multichain complex)>
1

> <BindingDB Target Chain Sequence>
MAAQKNNAPKEYGADSITILEGLEAVRKRPGMYIGSTGERGLHHLIWEVVDNAVDEAMAGFATRVDVKIHADGSVEVRDDGRGIPVEMHATGMPTIDVVMTQLHAGGKFDGETYAVSGGLHGVGVSVVNALSTRLEATVLRDGYEWFQYYDRSVPGKLKQGGETKETGTTIRFWADPEIFETTDYNFETVARRLQEMAFLNKGLTIELTDERVTAEEVVDDVVKDTAEAPKTADEKAAEATGPSKVKHRVFHYPGGLVDYVKHINRTKTPIQQSIIDFDGKGPGHEVEIAMQWNAGYSESVHTFANTINTHEGGTHEEGFRAALTSVVNRYAKDKKLLKDKDPNLTGDDIREGLAAVISVKVAEPQFEGQTKTKLGNTEVKSFVQKICNEQLQHWFEANPAEAKTVVNKAVSSAQARIAARKARELVRRKSATDIGGLPGKLADCRSTDPSKSELYVVEGDSAGGSAKSGRDSMFQAILPLRGKIINVEKARIDRVLKNTEVQSIITALGTGIHDEFDISKLRYHKIVLMADADVDGQHISTLLLTLLFRFMKPLVENGHIFLAQPPLYKLKWQRSEPEFAYSDRERDGLLEAGRAAGKKINVDDGIQRYKGLGEMDAKELWETTMDPSVRVLRQVTLDDAAAADELFSILMGEDVEARRSFITRNAKDVRFLDV

> <PDB ID(s) of Target Chain>
4BAE

> <UniProt (SwissProt) Recommended Name of Target Chain>
DNA gyrase subunit B

> <UniProt (SwissProt) Entry Name of Target Chain>
GYRB_MYCSM

> <UniProt (SwissProt) Primary ID of Target Chain>
P0C559

> <UniProt (SwissProt) Secondary ID(s) of Target Chain>
P48355,Q59555

> <UniProt (SwissProt) Alternative ID(s) of Target Chain>


> <UniProt (TrEMBL) Submitted Name of Target Chain>


> <UniProt (TrEMBL) Entry Name of Target Chain>


> <UniProt (TrEMBL) Primary ID of Target Chain>


> <UniProt (TrEMBL) Secondary ID(s) of Target Chain>


> <UniProt (TrEMBL) Alternative ID(s) of Target Chain>


$$$$

  SciTegic02271514412D

 26 28  0  0  0  0            999 V2000
    8.0880   -2.9280    0.0000 C   0  0
    7.2639   -2.9655    0.0000 C   0  0
    6.8883   -3.6953    0.0000 C   0  0  2  0  0  0
    7.3286   -4.3880    0.0000 C   0  0  2  0  0  0
    8.1527   -4.3506    0.0000 C   0  0
    8.5366   -3.6205    0.0000 N   0  0
    6.0642   -3.7327    0.0000 N   0  0
    5.6197   -3.0376    0.0000 C   0  0
    4.7956   -3.0751    0.0000 C   0  0
    5.9994   -2.3052    0.0000 O   0  0
    9.3608   -3.5830    0.0000 C   0  0
    4.2841   -2.4273    0.0000 C   0  0
    3.5119   -2.7176    0.0000 C   0  0
    3.5494   -3.5418    0.0000 C   0  0
    4.3447   -3.7608    0.0000 N   0  0
    9.8734   -4.2259    0.0000 N   0  0
   10.6457   -3.9355    0.0000 C   0  0
   10.6083   -3.1113    0.0000 C   0  0
    9.8130   -2.8924    0.0000 S   0  0
   11.2530   -2.5966    0.0000 C   0  0
   12.0212   -2.8976    0.0000 O   0  0
   11.1296   -1.7810    0.0000 O   0  0
    2.9046   -4.0565    0.0000 C   0  0
    4.5054   -1.6325    0.0000 Cl  0  0
    2.8232   -2.2634    0.0000 Cl  0  0
    6.9477   -5.1200    0.0000 C   0  0
  1  2  1  0
  1  6  1  0
  2  3  1  0
  3  4  1  0
  4  5  1  0
  5  6  1  0
  3  7  1  6
  7  8  1  0
  8  9  1  0
  8 10  2  0
  6 11  1  0
  9 12  2  0
 12 13  1  0
 13 14  2  0
 14 15  1  0
 15  9  1  0
 11 16  2  0
 16 17  1  0
 17 18  2  0
 18 19  1  0
 19 11  1  0
 18 20  1  0
 20 21  1  0
 20 22  2  0
 14 23  1  0
 12 24  1  0
 13 25  1  0
  4 26  1  6
M  END
> <From> 
www.bindingDB.org

> <BindingDB Reactant_set_id>
50271391

> <Ligand InChI>
InChI=1S/C16H18Cl2N4O3S/c1-7-6-22(16-19-5-10(26-16)15(24)25)4-3-9(7)21-14(23)13-12(18)11(17)8(2)20-13/h5,7,9,20H,3-4,6H2,1-2H3,(H,21,23)(H,24,25)/t7-,9+/m0/s1

> <Ligand InChI Key>
XIWAURLZJDHCCQ-IONNQARKSA-N

> <BindingDB MonomerID>
50047325

> <BindingDB Ligand Name>
CHEMBL3314534

> <Target Name Assigned by Curator or DataSource>
DNA Gyrase Subunit B

> <Target Source Organism According to Curator or DataSource>
Staphylococcus aureus

> <Ki (nM)>


> <IC50 (nM)>
 14

> <Kd (nM)>


> <EC50 (nM)>


> <kon (M-1-s-1)>


> <koff (s-1)>


> <pH>


> <Temp C>


> <Curation/DataSource>
ChEMBL

> <Article DOI>
10.1021/jm500462x

> <PMID>
24959892

> <PubChem AID>


> <Patent Number>


> <Authors>
Basarab, GS; Hill, PJ; Garner, CE; Hull, K; Green, O; Sherer, BA; Dangel, PB; Manchester, JI; Bist, S; Hauck, S; Zhou, F; Uria-Nickelsen, M; Illingworth, R; Alm, R; Rooney, M; Eakin, AE

> <Institution>
AstraZeneca

> <Link to Ligand in BindingDB>
http://www.bindingdb.org/bind/chemsearch/marvin/MolStructure.jsp?monomerid=50047325

> <Link to Ligand-Target Pair in BindingDB>
http://www.bindingdb.org/jsp/dbsearch/PrimarySearch_ki.jsp?energyterm=kJ/mole&tag=pol&polymerid=2626&target=DNA+Gyrase+Subunit+B&column=ki&startPg=0&Increment=50&submit=Search

> <Link to Ligand-Target Pair in BindingDB>
http://www.bindingdb.org/jsp/dbsearch/PrimarySearch_ki.jsp?energyterm=kJ/mole&tag=r21&monomerid=50047325&enzyme=DNA+Gyrase+Subunit+B&column=ki&startPg=0&Increment=50&submit=Search

> <Ligand HET ID in PDB>


> <PDB ID(s) for Ligand-Target Complex>


> <PubChem CID>
89699295

> <PubChem SID>
103978005

> <ChEBI ID of Ligand>


> <ChEMBL ID of Ligand>
CHEMBL34509

> <DrugBank ID of Ligand>


> <IUPHAR_GRAC ID of Ligand>


> <KEGG ID of Ligand>


> <ZINC ID of Ligand>
ZINC03915041

> <Number of Protein Chains in Target (>1 implies a multichain complex)>
1

> <BindingDB Target Chain Sequence>
MVTALSDVNNTDNYGAGQIQVLEGLEAVRKRPGMYIGSTSERGLHHLVWEIVDNSIDEALAGYANQIEVVIEKDNWIKVTDNGRGIPVDIQEKMGRPAVEVILTVLHAGGKFGGGGYKVSGGLHGVGSSVVNALSQDLEVYVHRNETIYHQAYKKGVPQFDLKEVGTTDKTGTVIRFKADGEIFTETTVYNYETLQQRIRELAFLNKGIQITLRDERDEENVREDSYHYEGGIKSYVELLNENKEPIHDEPIYIHQSKDDIEVEIAIQYNSGYATNLLTYANNIHTYEGGTHEDGFKRALTRVLNSYGLSSKIMKEEKDRLSGEDTREGMTAIISIKHGDPQFEGQTKTKLGNSEVRQVVDKLFSEHFERFLYENPQVARTVVEKGIMAARARVAAKKAREVTRRKSALDVASLPGKLADCSSKSPEECEIFLVEGDSAGGSTKSGRDSRTQAILPLRGKILNVEKARLDRILNNNEIRQMITAFGTGIGGDFDLAKARYHKIVIMTDADVDGAHIRTLLLTFFYRFMRPLIEAGYVYIAQPPLYKLTQGKQKYYVYNDRELDKLKSELNPTPKWSIARYKGLGEMNADQLWETTMNPEHRALLQVKLEDAIEADQTFEMLMGDVVENRRQFIEDNAVYANLDF

> <PDB ID(s) of Target Chain>


> <UniProt (SwissProt) Recommended Name of Target Chain>
DNA gyrase subunit B

> <UniProt (SwissProt) Entry Name of Target Chain>
GYRB_STAAU

> <UniProt (SwissProt) Primary ID of Target Chain>
P0A0K8

> <UniProt (SwissProt) Secondary ID(s) of Target Chain>
P20832

> <UniProt (SwissProt) Alternative ID(s) of Target Chain>


> <UniProt (TrEMBL) Submitted Name of Target Chain>


> <UniProt (TrEMBL) Entry Name of Target Chain>


> <UniProt (TrEMBL) Primary ID of Target Chain>


> <UniProt (TrEMBL) Secondary ID(s) of Target Chain>


> <UniProt (TrEMBL) Alternative ID(s) of Target Chain>


$$$$

  Mrv0541 04241520582D          

 34 37  0  0  0  0            999 V2000
   10.7437  -14.9506    0.0000 C   0  0  0  0  0  0  0  0  0  0  0  0
   12.8852  -13.7105    0.0000 C   0  0  0  0  0  0  0  0  0  0  0  0
   12.8841  -14.5367    0.0000 C   0  0  0  0  0  0  0  0  0  0  0  0
   13.5979  -14.9491    0.0000 N   0  0  0  0  0  0  0  0  0  0  0  0
   13.5961  -13.2983    0.0000 C   0  0  0  0  0  0  0  0  0  0  0  0
   14.3105  -13.7069    0.0000 C   0  0  0  0  0  0  0  0  0  0  0  0
   14.3154  -14.5367    0.0000 C   0  0  0  0  0  0  0  0  0  0  0  0
   15.1062  -14.7887    0.0000 S   0  0  0  0  0  0  0  0  0  0  0  0
   15.5901  -14.1143    0.0000 C   0  0  0  0  0  0  0  0  0  0  0  0
   15.0983  -13.4459    0.0000 N   0  0  0  0  0  0  0  0  0  0  0  0
   12.1738  -13.2989    0.0000 C   0  0  0  0  0  0  0  0  0  0  0  0
   12.1749  -12.4739    0.0000 C   0  0  0  0  0  0  0  0  0  0  0  0
   11.4621  -12.0622    0.0000 N   0  0  0  0  0  0  0  0  0  0  0  0
   10.7478  -12.4744    0.0000 C   0  0  0  0  0  0  0  0  0  0  0  0
   10.7506  -13.3025    0.0000 C   0  0  0  0  0  0  0  0  0  0  0  0
   16.4140  -14.1095    0.0000 N   0  0  0  0  0  0  0  0  0  0  0  0
   16.8217  -13.3936    0.0000 C   0  0  0  0  0  0  0  0  0  0  0  0
   17.6456  -13.3887    0.0000 N   0  0  0  0  0  0  0  0  0  0  0  0
   16.4056  -12.6825    0.0000 O   0  0  0  0  0  0  0  0  0  0  0  0
   18.0533  -12.6728    0.0000 C   0  0  0  0  0  0  0  0  0  0  0  0
   18.8772  -12.6679    0.0000 C   0  0  0  0  0  0  0  0  0  0  0  0
   11.4577  -13.7117    0.0000 C   0  0  0  0  0  0  0  0  0  0  0  0
   12.1702  -14.9482    0.0000 O   0  0  0  0  0  0  0  0  0  0  0  0
   11.4570  -14.5356    0.0000 C   0  0  0  0  0  0  0  0  0  0  0  0
    9.9887  -14.6174    0.0000 C   0  0  0  0  0  0  0  0  0  0  0  0
    9.4384  -15.2325    0.0000 C   0  0  0  0  0  0  0  0  0  0  0  0
    9.8534  -15.9459    0.0000 O   0  0  0  0  0  0  0  0  0  0  0  0
   10.6601  -15.7716    0.0000 C   0  0  0  0  0  0  0  0  0  0  0  0
   10.0336  -12.0636    0.0000 O   0  0  0  0  0  0  0  0  0  0  0  0
   10.0323  -11.2397    0.0000 C   0  0  0  0  0  0  0  0  0  0  0  0
    9.3182  -10.8288    0.0000 C   0  0  0  0  0  0  0  0  0  0  0  0
    9.3169  -10.0049    0.0000 N   0  0  0  0  0  0  0  0  0  0  0  0
    8.6027   -9.5942    0.0000 C   0  0  0  0  0  0  0  0  0  0  0  0
   10.0297   -9.5919    0.0000 C   0  0  0  0  0  0  0  0  0  0  0  0
  2  3  4  0  0  0  0
  3  4  4  0  0  0  0
  4  7  4  0  0  0  0
  6  5  4  0  0  0  0
  5  2  4  0  0  0  0
  6  7  4  0  0  0  0
  7  8  4  0  0  0  0
  8  9  4  0  0  0  0
  9 10  4  0  0  0  0
 10  6  4  0  0  0  0
 11 12  4  0  0  0  0
 12 13  4  0  0  0  0
 13 14  4  0  0  0  0
 14 15  4  0  0  0  0
 15 22  4  0  0  0  0
 22 11  4  0  0  0  0
  2 11  1  0  0  0  0
  9 16  1  0  0  0  0
 16 17  1  0  0  0  0
 17 18  1  0  0  0  0
 17 19  2  0  0  0  0
 18 20  1  0  0  0  0
 20 21  1  0  0  0  0
  3 23  1  0  0  0  0
 23 24  1  0  0  0  0
 24  1  1  0  0  0  0
  1 25  1  0  0  0  0
 25 26  1  0  0  0  0
 26 27  1  0  0  0  0
 27 28  1  0  0  0  0
 28  1  1  0  0  0  0
 14 29  1  0  0  0  0
 29 30  1  0  0  0  0
 30 31  1  0  0  0  0
 31 32  1  0  0  0  0
 32 33  1  0  0  0  0
 32 34  1  0  0  0  0
M  END
> <From> 
www.bindingDB.org

> <BindingDB Reactant_set_id>
50089936

> <Ligand InChI>
InChI=1S/C23H30N6O4S/c1-4-24-22(30)28-23-26-18-11-17(16-5-6-19(25-12-16)32-10-8-29(2)3)20(27-21(18)34-23)33-14-15-7-9-31-13-15/h5-6,11-12,15H,4,7-10,13-14H2,1-3H3,(H2,24,26,28,30)

> <Ligand InChI Key>
CVVCAVDFCYVKTH-UHFFFAOYSA-N

> <BindingDB MonomerID>
50010369

> <BindingDB Ligand Name>
CHEMBL3263611

> <Target Name Assigned by Curator or DataSource>
DNA gyrase subunit B

> <Target Source Organism According to Curator or DataSource>


> <Ki (nM)>


> <IC50 (nM)>
 14

> <Kd (nM)>


> <EC50 (nM)>


> <kon (M-1-s-1)>


> <koff (s-1)>


> <pH>


> <Temp C>


> <Curation/DataSource>
ChEMBL

> <Article DOI>
10.1021/jm401268f

> <PMID>
24088190

> <PubChem AID>


> <Patent Number>


> <Authors>
Ahuja, V; Ahuja, V; Basavarajappa, H; Basavarajappa, H; P, SH; P, SH; Boriack-Sjodin, PA; Boriack-Sjodin, PA; McKinney, D; McKinney, D; Ganguly, S; Ganguly, S; Kranthi, U; Kranthi, U; Gaonkar, S; Gaonkar, S; Jena, Lk; Jena, Lk; Ghorpade, SR; Ghorpade, SR; Ghosh, A; Ghosh, A; Barde, S; Barde, S; Kale, MG; Kale, MG; Koushik, K; Koushik, K; Kumar, CN; Kumar, CN; Manjunatha, MR; Manjunatha, MR; Ogg, D; Ogg, D; Panduga, V; Panduga, V; Ramya, VK; Ramya, VK; Reddy, J; Reddy, J; Kumar, KN; Kumar, KN; Giridhar, J; Giridhar, J; Rudrapatna, S; Rudrapatna, S; Sharma, S; Sharma, S; Tucker, JA; Tucker, JA; Vachaspati, P; Vachaspati, P; Waterson, D; Waterson, D; de Sousa, SM; de Sousa, SM

> <Institution>
AstraZeneca India Pvt. Ltd.

> <Link to Ligand in BindingDB>
http://www.bindingdb.org/bind/chemsearch/marvin/MolStructure.jsp?monomerid=50010369

> <Link to Ligand-Target Pair in BindingDB>
http://www.bindingdb.org/jsp/dbsearch/PrimarySearch_ki.jsp?energyterm=kJ/mole&tag=pol&polymerid=50006452&target=DNA+gyrase+subunit+B&column=ki&startPg=0&Increment=50&submit=Search

> <Link to Ligand-Target Pair in BindingDB>
http://www.bindingdb.org/jsp/dbsearch/PrimarySearch_ki.jsp?energyterm=kJ/mole&tag=r21&monomerid=50010369&enzyme=DNA+gyrase+subunit+B&column=ki&startPg=0&Increment=50&submit=Search

> <Ligand HET ID in PDB>


> <PDB ID(s) for Ligand-Target Complex>


> <PubChem CID>
72713308

> <PubChem SID>
103923183

> <ChEBI ID of Ligand>


> <ChEMBL ID of Ligand>
CHEMBL3263611

> <DrugBank ID of Ligand>


> <IUPHAR_GRAC ID of Ligand>


> <KEGG ID of Ligand>


> <ZINC ID of Ligand>


> <Number of Protein Chains in Target (>1 implies a multichain complex)>
1

> <BindingDB Target Chain Sequence>
MAAQKNNAPKEYGADSITILEGLEAVRKRPGMYIGSTGERGLHHLIWEVVDNAVDEAMAGFATRVDVKIHADGSVEVRDDGRGIPVEMHATGMPTIDVVMTQLHAGGKFDGETYAVSGGLHGVGVSVVNALSTRLEATVLRDGYEWFQYYDRSVPGKLKQGGETKETGTTIRFWADPEIFETTDYNFETVARRLQEMAFLNKGLTIELTDERVTAEEVVDDVVKDTAEAPKTADEKAAEATGPSKVKHRVFHYPGGLVDYVKHINRTKTPIQQSIIDFDGKGPGHEVEIAMQWNAGYSESVHTFANTINTHEGGTHEEGFRAALTSVVNRYAKDKKLLKDKDPNLTGDDIREGLAAVISVKVAEPQFEGQTKTKLGNTEVKSFVQKICNEQLQHWFEANPAEAKTVVNKAVSSAQARIAARKARELVRRKSATDIGGLPGKLADCRSTDPSKSELYVVEGDSAGGSAKSGRDSMFQAILPLRGKIINVEKARIDRVLKNTEVQSIITALGTGIHDEFDISKLRYHKIVLMADADVDGQHISTLLLTLLFRFMKPLVENGHIFLAQPPLYKLKWQRSEPEFAYSDRERDGLLEAGRAAGKKINVDDGIQRYKGLGEMDAKELWETTMDPSVRVLRQVTLDDAAAADELFSILMGEDVEARRSFITRNAKDVRFLDV

> <PDB ID(s) of Target Chain>
4BAE

> <UniProt (SwissProt) Recommended Name of Target Chain>
DNA gyrase subunit B

> <UniProt (SwissProt) Entry Name of Target Chain>
GYRB_MYCSM

> <UniProt (SwissProt) Primary ID of Target Chain>
P0C559

> <UniProt (SwissProt) Secondary ID(s) of Target Chain>
P48355,Q59555

> <UniProt (SwissProt) Alternative ID(s) of Target Chain>


> <UniProt (TrEMBL) Submitted Name of Target Chain>


> <UniProt (TrEMBL) Entry Name of Target Chain>


> <UniProt (TrEMBL) Primary ID of Target Chain>


> <UniProt (TrEMBL) Secondary ID(s) of Target Chain>


> <UniProt (TrEMBL) Alternative ID(s) of Target Chain>


$$$$

  Mrv0541 04241520572D          

 33 36  0  0  0  0            999 V2000
   20.4897  -27.2658    0.0000 C   0  0  0  0  0  0  0  0  0  0  0  0
   20.4885  -28.0932    0.0000 C   0  0  0  0  0  0  0  0  0  0  0  0
   21.2033  -28.5060    0.0000 C   0  0  0  0  0  0  0  0  0  0  0  0
   21.9198  -28.0927    0.0000 C   0  0  0  0  0  0  0  0  0  0  0  0
   21.9168  -27.2622    0.0000 C   0  0  0  0  0  0  0  0  0  0  0  0
   21.2015  -26.8531    0.0000 N   0  0  0  0  0  0  0  0  0  0  0  0
   19.7751  -26.8535    0.0000 N   0  0  0  0  0  0  0  0  0  0  0  0
   19.0608  -27.2662    0.0000 C   0  0  0  0  0  0  0  0  0  0  0  0
   18.3462  -26.8539    0.0000 N   0  0  0  0  0  0  0  0  0  0  0  0
   19.0610  -28.0912    0.0000 O   0  0  0  0  0  0  0  0  0  0  0  0
   17.6319  -27.2665    0.0000 C   0  0  0  0  0  0  0  0  0  0  0  0
   16.9174  -26.8542    0.0000 C   0  0  0  0  0  0  0  0  0  0  0  0
   22.6313  -28.5033    0.0000 C   0  0  0  0  0  0  0  0  0  0  0  0
   22.6312  -29.3294    0.0000 C   0  0  0  0  0  0  0  0  0  0  0  0
   23.3455  -29.7407    0.0000 N   0  0  0  0  0  0  0  0  0  0  0  0
   24.0603  -29.3271    0.0000 C   0  0  0  0  0  0  0  0  0  0  0  0
   24.0563  -28.4978    0.0000 C   0  0  0  0  0  0  0  0  0  0  0  0
   23.3415  -28.0903    0.0000 C   0  0  0  0  0  0  0  0  0  0  0  0
   24.7378  -28.0324    0.0000 C   0  0  0  0  0  0  0  0  0  0  0  0
   21.2082  -29.3310    0.0000 C   0  0  0  0  0  0  0  0  0  0  0  0
   20.5407  -29.8158    0.0000 S   0  0  0  0  0  0  0  0  0  0  0  0
   20.7954  -30.6005    0.0000 C   0  0  0  0  0  0  0  0  0  0  0  0
   21.6204  -30.6007    0.0000 C   0  0  0  0  0  0  0  0  0  0  0  0
   21.8753  -29.8161    0.0000 N   0  0  0  0  0  0  0  0  0  0  0  0
   22.1052  -31.2682    0.0000 C   0  0  0  0  0  0  0  0  0  0  0  0
   21.7695  -32.0217    0.0000 F   0  0  0  0  0  0  0  0  0  0  0  0
   22.9257  -31.1821    0.0000 F   0  0  0  0  0  0  0  0  0  0  0  0
   22.6869  -31.8491    0.0000 F   0  0  0  0  0  0  0  0  0  0  0  0
   25.5130  -28.3056    0.0000 N   0  0  0  0  0  0  0  0  0  0  0  0
   26.0171  -27.6526    0.0000 C   0  0  0  0  0  0  0  0  0  0  0  0
   25.5518  -26.9712    0.0000 O   0  0  0  0  0  0  0  0  0  0  0  0
   24.7603  -27.2033    0.0000 N   0  0  0  0  0  0  0  0  0  0  0  0
   26.8418  -27.6766    0.0000 O   0  0  0  0  0  0  0  0  0  0  0  0
  1  2  4  0  0  0  0
  2  3  4  0  0  0  0
  3  4  4  0  0  0  0
  4  5  4  0  0  0  0
  5  6  4  0  0  0  0
  6  1  4  0  0  0  0
  1  7  1  0  0  0  0
  7  8  1  0  0  0  0
  8  9  1  0  0  0  0
  8 10  2  0  0  0  0
  9 11  1  0  0  0  0
 11 12  1  0  0  0  0
 13 14  4  0  0  0  0
 14 15  4  0  0  0  0
 15 16  4  0  0  0  0
 16 17  4  0  0  0  0
 17 18  4  0  0  0  0
 18 13  4  0  0  0  0
  4 13  1  0  0  0  0
 17 19  1  0  0  0  0
 20 21  4  0  0  0  0
 21 22  4  0  0  0  0
 22 23  4  0  0  0  0
 23 24  4  0  0  0  0
 24 20  4  0  0  0  0
  3 20  1  0  0  0  0
 23 25  1  0  0  0  0
 25 26  1  0  0  0  0
 25 27  1  0  0  0  0
 25 28  1  0  0  0  0
 19 29  4  0  0  0  0
 29 30  4  0  0  0  0
 30 31  4  0  0  0  0
 31 32  4  0  0  0  0
 32 19  4  0  0  0  0
 30 33  2  0  0  0  0
M  STY  1   1 DAT
M  SAL   1  1  29
M  SDT   1 MRV_IMPLICIT_H                                        
M  SDD   1     0.0000    0.0000    DR    ALL  0       0  
M  SED   1 IMPL_H1
M  END
> <From> 
www.bindingDB.org

> <BindingDB Reactant_set_id>
50083280

> <Ligand InChI>
InChI=1S/C19H14F3N7O3S/c1-2-24-17(30)27-14-4-11(16-26-13(8-33-16)19(20,21)22)12(7-25-14)9-3-10(6-23-5-9)15-28-18(31)32-29-15/h3-8H,2H2,1H3,(H,28,29,31)(H2,24,25,27,30)

> <Ligand InChI Key>
XPCXMHBTJYVROB-UHFFFAOYSA-N

> <BindingDB MonomerID>
50006605

> <BindingDB Ligand Name>
CHEMBL3235096

> <Target Name Assigned by Curator or DataSource>
DNA Gyrase Subunit B

> <Target Source Organism According to Curator or DataSource>
Staphylococcus aureus

> <Ki (nM)>


> <IC50 (nM)>
 14

> <Kd (nM)>


> <EC50 (nM)>


> <kon (M-1-s-1)>


> <koff (s-1)>


> <pH>


> <Temp C>


> <Curation/DataSource>
ChEMBL

> <Article DOI>
10.1021/jm401208b

> <PMID>
24098982

> <PubChem AID>


> <Patent Number>


> <Authors>
Basarab, GS; Basarab, GS; Boriack-Sjodin, PA; Boriack-Sjodin, PA; Illingworth, R; Illingworth, R; Manchester, JI; Manchester, JI; Dangel, B; Dangel, B; Sriram, S; Sriram, S

> <Institution>
AstraZeneca R&amp;D Boston

> <Link to Ligand in BindingDB>
http://www.bindingdb.org/bind/chemsearch/marvin/MolStructure.jsp?monomerid=50006605

> <Link to Ligand-Target Pair in BindingDB>
http://www.bindingdb.org/jsp/dbsearch/PrimarySearch_ki.jsp?energyterm=kJ/mole&tag=pol&polymerid=2626&target=DNA+Gyrase+Subunit+B&column=ki&startPg=0&Increment=50&submit=Search

> <Link to Ligand-Target Pair in BindingDB>
http://www.bindingdb.org/jsp/dbsearch/PrimarySearch_ki.jsp?energyterm=kJ/mole&tag=r21&monomerid=50006605&enzyme=DNA+Gyrase+Subunit+B&column=ki&startPg=0&Increment=50&submit=Search

> <Ligand HET ID in PDB>


> <PDB ID(s) for Ligand-Target Complex>


> <PubChem CID>
44206075

> <PubChem SID>
242057017

> <ChEBI ID of Ligand>


> <ChEMBL ID of Ligand>
CHEMBL3235096

> <DrugBank ID of Ligand>


> <IUPHAR_GRAC ID of Ligand>


> <KEGG ID of Ligand>


> <ZINC ID of Ligand>


> <Number of Protein Chains in Target (>1 implies a multichain complex)>
1

> <BindingDB Target Chain Sequence>
MVTALSDVNNTDNYGAGQIQVLEGLEAVRKRPGMYIGSTSERGLHHLVWEIVDNSIDEALAGYANQIEVVIEKDNWIKVTDNGRGIPVDIQEKMGRPAVEVILTVLHAGGKFGGGGYKVSGGLHGVGSSVVNALSQDLEVYVHRNETIYHQAYKKGVPQFDLKEVGTTDKTGTVIRFKADGEIFTETTVYNYETLQQRIRELAFLNKGIQITLRDERDEENVREDSYHYEGGIKSYVELLNENKEPIHDEPIYIHQSKDDIEVEIAIQYNSGYATNLLTYANNIHTYEGGTHEDGFKRALTRVLNSYGLSSKIMKEEKDRLSGEDTREGMTAIISIKHGDPQFEGQTKTKLGNSEVRQVVDKLFSEHFERFLYENPQVARTVVEKGIMAARARVAAKKAREVTRRKSALDVASLPGKLADCSSKSPEECEIFLVEGDSAGGSTKSGRDSRTQAILPLRGKILNVEKARLDRILNNNEIRQMITAFGTGIGGDFDLAKARYHKIVIMTDADVDGAHIRTLLLTFFYRFMRPLIEAGYVYIAQPPLYKLTQGKQKYYVYNDRELDKLKSELNPTPKWSIARYKGLGEMNADQLWETTMNPEHRALLQVKLEDAIEADQTFEMLMGDVVENRRQFIEDNAVYANLDF

> <PDB ID(s) of Target Chain>


> <UniProt (SwissProt) Recommended Name of Target Chain>
DNA gyrase subunit B

> <UniProt (SwissProt) Entry Name of Target Chain>
GYRB_STAAU

> <UniProt (SwissProt) Primary ID of Target Chain>
P0A0K8

> <UniProt (SwissProt) Secondary ID(s) of Target Chain>
P20832

> <UniProt (SwissProt) Alternative ID(s) of Target Chain>


> <UniProt (TrEMBL) Submitted Name of Target Chain>


> <UniProt (TrEMBL) Entry Name of Target Chain>


> <UniProt (TrEMBL) Primary ID of Target Chain>


> <UniProt (TrEMBL) Secondary ID(s) of Target Chain>


> <UniProt (TrEMBL) Alternative ID(s) of Target Chain>


$$$$

  SciTegic09291413392D

 30 33  0  0  0  0            999 V2000
   10.8133   -7.6849    0.0000 C   0  0
   12.9374   -6.4549    0.0000 C   0  0
   12.9363   -7.2745    0.0000 C   0  0
   13.6443   -7.6834    0.0000 N   0  0
   13.6426   -6.0461    0.0000 C   0  0
   14.3512   -6.4513    0.0000 C   0  0
   14.3560   -7.2745    0.0000 C   0  0
   15.1404   -7.5243    0.0000 S   0  0
   15.6204   -6.8555    0.0000 C   0  0
   15.1326   -6.1925    0.0000 N   0  0
   12.2317   -6.0467    0.0000 C   0  0
   12.2329   -5.2284    0.0000 C   0  0
   11.5259   -4.8200    0.0000 N   0  0
   10.8173   -5.2289    0.0000 C   0  0
   10.8201   -6.0503    0.0000 C   0  0
   16.4376   -6.8507    0.0000 N   0  0
   16.8420   -6.1406    0.0000 C   0  0
   17.6591   -6.1357    0.0000 N   0  0
   16.4292   -5.4353    0.0000 O   0  0
   18.0636   -5.4256    0.0000 C   0  0
   18.8807   -5.4208    0.0000 C   0  0
   11.5215   -6.4562    0.0000 C   0  0
   12.2283   -7.6825    0.0000 O   0  0
   11.5209   -7.2734    0.0000 C   0  0
   10.0644   -7.3544    0.0000 C   0  0
    9.5187   -7.9645    0.0000 C   0  0
    9.9303   -8.6722    0.0000 O   0  0
   10.7303   -8.4993    0.0000 C   0  0
   10.1089   -4.8214    0.0000 C   0  0
    9.4015   -4.4154    0.0000 N   0  0
  2  3  2  0
  3  4  1  0
  4  7  2  0
  6  5  2  0
  5  2  1  0
  6  7  1  0
  7  8  1  0
  8  9  1  0
  9 10  2  0
 10  6  1  0
 11 12  2  0
 12 13  1  0
 13 14  2  0
 14 15  1  0
 15 22  2  0
 22 11  1  0
  2 11  1  0
  9 16  1  0
 16 17  1  0
 17 18  1  0
 17 19  2  0
 18 20  1  0
 20 21  1  0
  3 23  1  0
 23 24  1  0
 24  1  1  0
  1 25  1  0
 25 26  1  0
 26 27  1  0
 27 28  1  0
 28  1  1  0
 14 29  1  0
 29 30  3  0
M  END
> <From> 
www.bindingDB.org

> <BindingDB Reactant_set_id>
50089932

> <Ligand InChI>
InChI=1S/C20H20N6O3S/c1-2-22-19(27)26-20-24-16-7-15(13-3-4-14(8-21)23-9-13)17(25-18(16)30-20)29-11-12-5-6-28-10-12/h3-4,7,9,12H,2,5-6,10-11H2,1H3,(H2,22,24,26,27)

> <Ligand InChI Key>
CGANSEJMXSSHIR-UHFFFAOYSA-N

> <BindingDB MonomerID>
50010366

> <BindingDB Ligand Name>
CHEMBL3263608

> <Target Name Assigned by Curator or DataSource>
DNA gyrase subunit B

> <Target Source Organism According to Curator or DataSource>


> <Ki (nM)>


> <IC50 (nM)>
 14

> <Kd (nM)>


> <EC50 (nM)>


> <kon (M-1-s-1)>


> <koff (s-1)>


> <pH>


> <Temp C>


> <Curation/DataSource>
ChEMBL

> <Article DOI>
10.1021/jm401268f

> <PMID>
24088190

> <PubChem AID>


> <Patent Number>


> <Authors>
Ahuja, V; Ahuja, V; Basavarajappa, H; Basavarajappa, H; P, SH; P, SH; Boriack-Sjodin, PA; Boriack-Sjodin, PA; McKinney, D; McKinney, D; Ganguly, S; Ganguly, S; Kranthi, U; Kranthi, U; Gaonkar, S; Gaonkar, S; Jena, Lk; Jena, Lk; Ghorpade, SR; Ghorpade, SR; Ghosh, A; Ghosh, A; Barde, S; Barde, S; Kale, MG; Kale, MG; Koushik, K; Koushik, K; Kumar, CN; Kumar, CN; Manjunatha, MR; Manjunatha, MR; Ogg, D; Ogg, D; Panduga, V; Panduga, V; Ramya, VK; Ramya, VK; Reddy, J; Reddy, J; Kumar, KN; Kumar, KN; Giridhar, J; Giridhar, J; Rudrapatna, S; Rudrapatna, S; Sharma, S; Sharma, S; Tucker, JA; Tucker, JA; Vachaspati, P; Vachaspati, P; Waterson, D; Waterson, D; de Sousa, SM; de Sousa, SM

> <Institution>
AstraZeneca India Pvt. Ltd.

> <Link to Ligand in BindingDB>
http://www.bindingdb.org/bind/chemsearch/marvin/MolStructure.jsp?monomerid=50010366

> <Link to Ligand-Target Pair in BindingDB>
http://www.bindingdb.org/jsp/dbsearch/PrimarySearch_ki.jsp?energyterm=kJ/mole&tag=pol&polymerid=50006452&target=DNA+gyrase+subunit+B&column=ki&startPg=0&Increment=50&submit=Search

> <Link to Ligand-Target Pair in BindingDB>
http://www.bindingdb.org/jsp/dbsearch/PrimarySearch_ki.jsp?energyterm=kJ/mole&tag=r21&monomerid=50010366&enzyme=DNA+gyrase+subunit+B&column=ki&startPg=0&Increment=50&submit=Search

> <Ligand HET ID in PDB>


> <PDB ID(s) for Ligand-Target Complex>


> <PubChem CID>
59352824

> <PubChem SID>
103923180

> <ChEBI ID of Ligand>


> <ChEMBL ID of Ligand>
CHEMBL3263608

> <DrugBank ID of Ligand>


> <IUPHAR_GRAC ID of Ligand>


> <KEGG ID of Ligand>


> <ZINC ID of Ligand>
ZINC13446788

> <Number of Protein Chains in Target (>1 implies a multichain complex)>
1

> <BindingDB Target Chain Sequence>
MAAQKNNAPKEYGADSITILEGLEAVRKRPGMYIGSTGERGLHHLIWEVVDNAVDEAMAGFATRVDVKIHADGSVEVRDDGRGIPVEMHATGMPTIDVVMTQLHAGGKFDGETYAVSGGLHGVGVSVVNALSTRLEATVLRDGYEWFQYYDRSVPGKLKQGGETKETGTTIRFWADPEIFETTDYNFETVARRLQEMAFLNKGLTIELTDERVTAEEVVDDVVKDTAEAPKTADEKAAEATGPSKVKHRVFHYPGGLVDYVKHINRTKTPIQQSIIDFDGKGPGHEVEIAMQWNAGYSESVHTFANTINTHEGGTHEEGFRAALTSVVNRYAKDKKLLKDKDPNLTGDDIREGLAAVISVKVAEPQFEGQTKTKLGNTEVKSFVQKICNEQLQHWFEANPAEAKTVVNKAVSSAQARIAARKARELVRRKSATDIGGLPGKLADCRSTDPSKSELYVVEGDSAGGSAKSGRDSMFQAILPLRGKIINVEKARIDRVLKNTEVQSIITALGTGIHDEFDISKLRYHKIVLMADADVDGQHISTLLLTLLFRFMKPLVENGHIFLAQPPLYKLKWQRSEPEFAYSDRERDGLLEAGRAAGKKINVDDGIQRYKGLGEMDAKELWETTMDPSVRVLRQVTLDDAAAADELFSILMGEDVEARRSFITRNAKDVRFLDV

> <PDB ID(s) of Target Chain>
4BAE

> <UniProt (SwissProt) Recommended Name of Target Chain>
DNA gyrase subunit B

> <UniProt (SwissProt) Entry Name of Target Chain>
GYRB_MYCSM

> <UniProt (SwissProt) Primary ID of Target Chain>
P0C559

> <UniProt (SwissProt) Secondary ID(s) of Target Chain>
P48355,Q59555

> <UniProt (SwissProt) Alternative ID(s) of Target Chain>


> <UniProt (TrEMBL) Submitted Name of Target Chain>


> <UniProt (TrEMBL) Entry Name of Target Chain>


> <UniProt (TrEMBL) Primary ID of Target Chain>


> <UniProt (TrEMBL) Secondary ID(s) of Target Chain>


> <UniProt (TrEMBL) Alternative ID(s) of Target Chain>


$$$$

  SciTegic02271514412D

 29 31  0  0  0  0            999 V2000
    9.9752   -3.6363    0.0000 C   0  0
    9.1510   -3.6736    0.0000 C   0  0
    8.7755   -4.4034    0.0000 C   0  0  2  0  0  0
    9.2155   -5.0966    0.0000 C   0  0  1  0  0  0
   10.0398   -5.0588    0.0000 C   0  0
   10.4237   -4.3286    0.0000 N   0  0
    7.9513   -4.4408    0.0000 N   0  0
    7.5068   -3.7458    0.0000 C   0  0
    6.6828   -3.7832    0.0000 C   0  0
    7.8865   -3.0134    0.0000 O   0  0
   11.2478   -4.2911    0.0000 C   0  0
    6.1714   -3.1355    0.0000 C   0  0
    5.3992   -3.4258    0.0000 C   0  0
    5.4366   -4.2499    0.0000 C   0  0
    6.2319   -4.4689    0.0000 N   0  0
   11.7605   -4.9340    0.0000 N   0  0
   12.5327   -4.6437    0.0000 C   0  0
   12.4952   -3.8196    0.0000 C   0  0
   11.6999   -3.6006    0.0000 S   0  0
   13.1400   -3.3048    0.0000 C   0  0
   13.9080   -3.6058    0.0000 O   0  0
   13.0165   -2.4891    0.0000 O   0  0
    4.7919   -4.7647    0.0000 C   0  0
    6.3926   -2.3407    0.0000 Cl  0  0
    4.7105   -2.9716    0.0000 Cl  0  0
    8.7430   -5.7728    0.0000 O   0  0
    7.9210   -5.7016    0.0000 C   0  0
    9.6299   -5.8026    0.0000 O   0  0
   10.4549   -5.7969    0.0000 C   0  0
  1  2  1  0
  1  6  1  0
  2  3  1  0
  3  4  1  0
  4  5  1  0
  5  6  1  0
  3  7  1  6
  7  8  1  0
  8  9  1  0
  8 10  2  0
  6 11  1  0
  9 12  2  0
 12 13  1  0
 13 14  2  0
 14 15  1  0
 15  9  1  0
 11 16  2  0
 16 17  1  0
 17 18  2  0
 18 19  1  0
 19 11  1  0
 18 20  1  0
 20 21  1  0
 20 22  2  0
 14 23  1  0
 12 24  1  0
 13 25  1  0
  4 26  1  1
 26 27  1  0
  4 28  1  0
 28 29  1  0
M  END
> <From> 
www.bindingDB.org

> <BindingDB Reactant_set_id>
50271398

> <Ligand InChI>
InChI=1S/C17H20Cl2N4O5S/c1-8-11(18)12(19)13(21-8)14(24)22-10-4-5-23(7-17(10,27-2)28-3)16-20-6-9(29-16)15(25)26/h6,10,21H,4-5,7H2,1-3H3,(H,22,24)(H,25,26)/t10-/m1/s1

> <Ligand InChI Key>
ZAVBNYFZECWAQQ-SNVBAGLBSA-N

> <BindingDB MonomerID>
50047332

> <BindingDB Ligand Name>
CHEMBL3314541

> <Target Name Assigned by Curator or DataSource>
DNA Gyrase Subunit B

> <Target Source Organism According to Curator or DataSource>
Staphylococcus aureus

> <Ki (nM)>


> <IC50 (nM)>
 14

> <Kd (nM)>


> <EC50 (nM)>


> <kon (M-1-s-1)>


> <koff (s-1)>


> <pH>


> <Temp C>


> <Curation/DataSource>
ChEMBL

> <Article DOI>
10.1021/jm500462x

> <PMID>
24959892

> <PubChem AID>


> <Patent Number>


> <Authors>
Basarab, GS; Hill, PJ; Garner, CE; Hull, K; Green, O; Sherer, BA; Dangel, PB; Manchester, JI; Bist, S; Hauck, S; Zhou, F; Uria-Nickelsen, M; Illingworth, R; Alm, R; Rooney, M; Eakin, AE

> <Institution>
AstraZeneca

> <Link to Ligand in BindingDB>
http://www.bindingdb.org/bind/chemsearch/marvin/MolStructure.jsp?monomerid=50047332

> <Link to Ligand-Target Pair in BindingDB>
http://www.bindingdb.org/jsp/dbsearch/PrimarySearch_ki.jsp?energyterm=kJ/mole&tag=pol&polymerid=2626&target=DNA+Gyrase+Subunit+B&column=ki&startPg=0&Increment=50&submit=Search

> <Link to Ligand-Target Pair in BindingDB>
http://www.bindingdb.org/jsp/dbsearch/PrimarySearch_ki.jsp?energyterm=kJ/mole&tag=r21&monomerid=50047332&enzyme=DNA+Gyrase+Subunit+B&column=ki&startPg=0&Increment=50&submit=Search

> <Ligand HET ID in PDB>


> <PDB ID(s) for Ligand-Target Complex>


> <PubChem CID>
118707647

> <PubChem SID>
103978012

> <ChEBI ID of Ligand>


> <ChEMBL ID of Ligand>
CHEMBL33326

> <DrugBank ID of Ligand>


> <IUPHAR_GRAC ID of Ligand>


> <KEGG ID of Ligand>


> <ZINC ID of Ligand>
ZINC29216489

> <Number of Protein Chains in Target (>1 implies a multichain complex)>
1

> <BindingDB Target Chain Sequence>
MVTALSDVNNTDNYGAGQIQVLEGLEAVRKRPGMYIGSTSERGLHHLVWEIVDNSIDEALAGYANQIEVVIEKDNWIKVTDNGRGIPVDIQEKMGRPAVEVILTVLHAGGKFGGGGYKVSGGLHGVGSSVVNALSQDLEVYVHRNETIYHQAYKKGVPQFDLKEVGTTDKTGTVIRFKADGEIFTETTVYNYETLQQRIRELAFLNKGIQITLRDERDEENVREDSYHYEGGIKSYVELLNENKEPIHDEPIYIHQSKDDIEVEIAIQYNSGYATNLLTYANNIHTYEGGTHEDGFKRALTRVLNSYGLSSKIMKEEKDRLSGEDTREGMTAIISIKHGDPQFEGQTKTKLGNSEVRQVVDKLFSEHFERFLYENPQVARTVVEKGIMAARARVAAKKAREVTRRKSALDVASLPGKLADCSSKSPEECEIFLVEGDSAGGSTKSGRDSRTQAILPLRGKILNVEKARLDRILNNNEIRQMITAFGTGIGGDFDLAKARYHKIVIMTDADVDGAHIRTLLLTFFYRFMRPLIEAGYVYIAQPPLYKLTQGKQKYYVYNDRELDKLKSELNPTPKWSIARYKGLGEMNADQLWETTMNPEHRALLQVKLEDAIEADQTFEMLMGDVVENRRQFIEDNAVYANLDF

> <PDB ID(s) of Target Chain>


> <UniProt (SwissProt) Recommended Name of Target Chain>
DNA gyrase subunit B

> <UniProt (SwissProt) Entry Name of Target Chain>
GYRB_STAAU

> <UniProt (SwissProt) Primary ID of Target Chain>
P0A0K8

> <UniProt (SwissProt) Secondary ID(s) of Target Chain>
P20832

> <UniProt (SwissProt) Alternative ID(s) of Target Chain>


> <UniProt (TrEMBL) Submitted Name of Target Chain>


> <UniProt (TrEMBL) Entry Name of Target Chain>


> <UniProt (TrEMBL) Primary ID of Target Chain>


> <UniProt (TrEMBL) Secondary ID(s) of Target Chain>


> <UniProt (TrEMBL) Alternative ID(s) of Target Chain>


$$$$

  SciTegic12201612272D

 28 31  0  0  0  0            999 V2000
    7.4189    7.0332    0.0000 C   0  0
    7.5821    5.5421    0.0000 C   0  0
    6.3724    4.6552    0.0000 C   0  0
    5.0044    5.2582    0.0000 C   0  0
    4.8363    6.7505    0.0000 C   0  0
    6.0460    7.6374    0.0000 N   0  0
    8.6275    7.9231    0.0000 C   0  0
    9.7266    7.4417    0.0000 O   0  0
    8.4620    9.4148    0.0000 O   0  0
    3.6243    2.9682    0.0000 S   0  0
    3.7308    4.4645    0.0000 C   0  0
    2.3406    5.0280    0.0000 N   0  0
    1.3751    3.8801    0.0000 C   0  0
    2.1749    2.6315    0.0000 C   0  0
    0.2917   -0.7475    0.0000 C   0  0
    0.2917    0.7475    0.0000 C   0  0
   -1.0028    1.5132    0.0000 C   0  0
   -2.3155    0.7475    0.0000 C   0  0
   -2.3155   -0.7475    0.0000 C   0  0
   -1.0028   -1.5132    0.0000 N   0  0
    2.5889    0.0182    0.0000 N   0  0
    1.7138   -1.2033    0.0000 N   0  0
    1.7138    1.2033    0.0000 C   0  0
   -0.9971   -3.0138    0.0000 C   0  0
   -2.2935   -3.7700    0.0000 C   0  0
   -2.2889   -4.9699    0.0000 C   0  0
   -3.3560   -1.3452    0.0000 O   0  0
    9.4283   10.1263    0.0000 C   0  0
  1  2  1  0
  2  3  2  0
  3  4  1  0
  4  5  2  0
  5  6  1  0
  1  6  2  0
  1  7  1  0
  7  8  2  0
  7  9  1  0
 10 11  1  0
 11 12  2  0
 12 13  1  0
 13 14  2  0
 10 14  1  0
 15 16  2  0
 16 17  1  0
 17 18  2  0
 18 19  1  0
 19 20  1  0
 15 20  1  0
 21 22  1  0
 21 23  2  0
 15 22  1  0
 16 23  1  0
 24 25  1  0
 25 26  1  0
 20 24  1  0
 19 27  2  0
 14 23  1  0
  4 11  1  0
  9 28  1  0
M  END
> <From> 
www.bindingDB.org

> <BindingDB Reactant_set_id>
50498680

> <Ligand InChI>
InChI=1S/C19H17N5O3S/c1-3-8-24-15(25)7-5-12-16(22-23-17(12)24)14-10-21-18(28-14)11-4-6-13(20-9-11)19(26)27-2/h4-7,9-10H,3,8H2,1-2H3,(H,22,23)

> <Ligand InChI Key>
ONPITXFCVXGSDS-UHFFFAOYSA-N

> <BindingDB MonomerID>
50173724

> <BindingDB Ligand Name>
CHEMBL3809114

> <Target Name Assigned by Curator or DataSource>
DNA gyrase

> <Target Source Organism According to Curator or DataSource>
Staphylococcus aureus

> <Ki (nM)>


> <IC50 (nM)>
 15

> <Kd (nM)>


> <EC50 (nM)>


> <kon (M-1-s-1)>


> <koff (s-1)>


> <pH>


> <Temp C>


> <Curation/DataSource>
ChEMBL

> <Article DOI>
10.1021/acsmedchemlett.5b00368

> <PMID>
27096044

> <PubChem AID>


> <Patent Number>


> <Authors>
Cross, JB; Zhang, J; Yang, Q; Mesleh, MF; Romero, JA; Wang, B; Bevan, D; Poutsiaka, KM; Epie, F; Moy, T; Daniel, A; Shotwell, J; Chamberlain, B; Carter, N; Andersen, O; Barker, J; Ryan, MD; Metcalf, CA; Silverman, J; Nguyen, K; Lippa, B; Dolle, RE

> <Institution>
Cubist Pharmaceuticals, Inc.

> <Link to Ligand in BindingDB>
http://www.bindingdb.org/bind/chemsearch/marvin/MolStructure.jsp?monomerid=50173724

> <Link to Ligand-Target Pair in BindingDB>
http://www.bindingdb.org/jsp/dbsearch/PrimarySearch_ki.jsp?energyterm=kJ/mole&tag=pol&polymerid=2626&target=DNA+gyrase&column=ki&startPg=0&Increment=50&submit=Search

> <Link to Ligand-Target Pair in BindingDB>
http://www.bindingdb.org/jsp/dbsearch/PrimarySearch_ki.jsp?energyterm=kJ/mole&tag=r21&monomerid=50173724&enzyme=DNA+gyrase&column=ki&startPg=0&Increment=50&submit=Search

> <Ligand HET ID in PDB>


> <PDB ID(s) for Ligand-Target Complex>


> <PubChem CID>
127045234

> <PubChem SID>
104059588

> <ChEBI ID of Ligand>


> <ChEMBL ID of Ligand>


> <DrugBank ID of Ligand>


> <IUPHAR_GRAC ID of Ligand>


> <KEGG ID of Ligand>


> <ZINC ID of Ligand>
ZINC96309551

> <Number of Protein Chains in Target (>1 implies a multichain complex)>
1

> <BindingDB Target Chain Sequence>
MVTALSDVNNTDNYGAGQIQVLEGLEAVRKRPGMYIGSTSERGLHHLVWEIVDNSIDEALAGYANQIEVVIEKDNWIKVTDNGRGIPVDIQEKMGRPAVEVILTVLHAGGKFGGGGYKVSGGLHGVGSSVVNALSQDLEVYVHRNETIYHQAYKKGVPQFDLKEVGTTDKTGTVIRFKADGEIFTETTVYNYETLQQRIRELAFLNKGIQITLRDERDEENVREDSYHYEGGIKSYVELLNENKEPIHDEPIYIHQSKDDIEVEIAIQYNSGYATNLLTYANNIHTYEGGTHEDGFKRALTRVLNSYGLSSKIMKEEKDRLSGEDTREGMTAIISIKHGDPQFEGQTKTKLGNSEVRQVVDKLFSEHFERFLYENPQVARTVVEKGIMAARARVAAKKAREVTRRKSALDVASLPGKLADCSSKSPEECEIFLVEGDSAGGSTKSGRDSRTQAILPLRGKILNVEKARLDRILNNNEIRQMITAFGTGIGGDFDLAKARYHKIVIMTDADVDGAHIRTLLLTFFYRFMRPLIEAGYVYIAQPPLYKLTQGKQKYYVYNDRELDKLKSELNPTPKWSIARYKGLGEMNADQLWETTMNPEHRALLQVKLEDAIEADQTFEMLMGDVVENRRQFIEDNAVYANLDF

> <PDB ID(s) of Target Chain>


> <UniProt (SwissProt) Recommended Name of Target Chain>
DNA gyrase subunit B

> <UniProt (SwissProt) Entry Name of Target Chain>
GYRB_STAAU

> <UniProt (SwissProt) Primary ID of Target Chain>
P0A0K8

> <UniProt (SwissProt) Secondary ID(s) of Target Chain>
P20832

> <UniProt (SwissProt) Alternative ID(s) of Target Chain>


> <UniProt (TrEMBL) Submitted Name of Target Chain>


> <UniProt (TrEMBL) Entry Name of Target Chain>


> <UniProt (TrEMBL) Primary ID of Target Chain>


> <UniProt (TrEMBL) Secondary ID(s) of Target Chain>


> <UniProt (TrEMBL) Alternative ID(s) of Target Chain>


$$$$

  SciTegic12201612272D

 27 30  0  0  0  0            999 V2000
    0.2917   -0.7475    0.0000 C   0  0
    0.2917    0.7475    0.0000 C   0  0
   -1.0028    1.5132    0.0000 C   0  0
   -2.3155    0.7475    0.0000 C   0  0
   -2.3155   -0.7475    0.0000 C   0  0
   -1.0028   -1.5132    0.0000 N   0  0
    2.5889    0.0182    0.0000 N   0  0
    1.7138   -1.2033    0.0000 N   0  0
    1.7138    1.2033    0.0000 C   0  0
   -3.3560   -1.3452    0.0000 O   0  0
   -0.9971   -3.0138    0.0000 C   0  0
   -2.2935   -3.7700    0.0000 C   0  0
   -2.2889   -4.9699    0.0000 C   0  0
    3.6243    2.9682    0.0000 S   0  0
    3.7308    4.4645    0.0000 C   0  0
    2.3406    5.0280    0.0000 N   0  0
    1.3751    3.8801    0.0000 C   0  0
    2.1749    2.6315    0.0000 C   0  0
    6.3724    4.6552    0.0000 C   0  0
    5.0044    5.2582    0.0000 C   0  0
    4.8363    6.7505    0.0000 C   0  0
    6.0460    7.6374    0.0000 C   0  0
    7.4189    7.0332    0.0000 C   0  0
    7.5821    5.5421    0.0000 N   0  0
    8.6311    7.9182    0.0000 N   0  0
    9.7288    7.4333    0.0000 C   0  0
    8.5026    9.1113    0.0000 C   0  0
  1  2  2  0
  2  3  1  0
  3  4  2  0
  4  5  1  0
  5  6  1  0
  1  6  1  0
  7  8  1  0
  7  9  2  0
  1  8  1  0
  2  9  1  0
  5 10  2  0
 11 12  1  0
 12 13  1  0
  6 11  1  0
 14 15  1  0
 15 16  2  0
 16 17  1  0
 17 18  2  0
 14 18  1  0
 19 20  1  0
 20 21  2  0
 21 22  1  0
 22 23  2  0
 23 24  1  0
 19 24  2  0
 25 26  1  0
 25 27  1  0
 23 25  1  0
 15 20  1  0
  9 18  1  0
M  END
> <From> 
www.bindingDB.org

> <BindingDB Reactant_set_id>
50498672

> <Ligand InChI>
InChI=1S/C19H20N6OS/c1-4-9-25-16(26)8-6-13-17(22-23-18(13)25)14-11-21-19(27-14)12-5-7-15(20-10-12)24(2)3/h5-8,10-11H,4,9H2,1-3H3,(H,22,23)

> <Ligand InChI Key>
FTAUDSQNIOMSIZ-UHFFFAOYSA-N

> <BindingDB MonomerID>
50173605

> <BindingDB Ligand Name>
CHEMBL3808603

> <Target Name Assigned by Curator or DataSource>
DNA gyrase

> <Target Source Organism According to Curator or DataSource>
Staphylococcus aureus

> <Ki (nM)>


> <IC50 (nM)>
 15

> <Kd (nM)>


> <EC50 (nM)>


> <kon (M-1-s-1)>


> <koff (s-1)>


> <pH>


> <Temp C>


> <Curation/DataSource>
ChEMBL

> <Article DOI>
10.1021/acsmedchemlett.5b00368

> <PMID>
27096044

> <PubChem AID>


> <Patent Number>


> <Authors>
Cross, JB; Zhang, J; Yang, Q; Mesleh, MF; Romero, JA; Wang, B; Bevan, D; Poutsiaka, KM; Epie, F; Moy, T; Daniel, A; Shotwell, J; Chamberlain, B; Carter, N; Andersen, O; Barker, J; Ryan, MD; Metcalf, CA; Silverman, J; Nguyen, K; Lippa, B; Dolle, RE

> <Institution>
Cubist Pharmaceuticals, Inc.

> <Link to Ligand in BindingDB>
http://www.bindingdb.org/bind/chemsearch/marvin/MolStructure.jsp?monomerid=50173605

> <Link to Ligand-Target Pair in BindingDB>
http://www.bindingdb.org/jsp/dbsearch/PrimarySearch_ki.jsp?energyterm=kJ/mole&tag=pol&polymerid=2626&target=DNA+gyrase&column=ki&startPg=0&Increment=50&submit=Search

> <Link to Ligand-Target Pair in BindingDB>
http://www.bindingdb.org/jsp/dbsearch/PrimarySearch_ki.jsp?energyterm=kJ/mole&tag=r21&monomerid=50173605&enzyme=DNA+gyrase&column=ki&startPg=0&Increment=50&submit=Search

> <Ligand HET ID in PDB>


> <PDB ID(s) for Ligand-Target Complex>


> <PubChem CID>
127043437

> <PubChem SID>
346548888

> <ChEBI ID of Ligand>


> <ChEMBL ID of Ligand>


> <DrugBank ID of Ligand>


> <IUPHAR_GRAC ID of Ligand>


> <KEGG ID of Ligand>


> <ZINC ID of Ligand>


> <Number of Protein Chains in Target (>1 implies a multichain complex)>
1

> <BindingDB Target Chain Sequence>
MVTALSDVNNTDNYGAGQIQVLEGLEAVRKRPGMYIGSTSERGLHHLVWEIVDNSIDEALAGYANQIEVVIEKDNWIKVTDNGRGIPVDIQEKMGRPAVEVILTVLHAGGKFGGGGYKVSGGLHGVGSSVVNALSQDLEVYVHRNETIYHQAYKKGVPQFDLKEVGTTDKTGTVIRFKADGEIFTETTVYNYETLQQRIRELAFLNKGIQITLRDERDEENVREDSYHYEGGIKSYVELLNENKEPIHDEPIYIHQSKDDIEVEIAIQYNSGYATNLLTYANNIHTYEGGTHEDGFKRALTRVLNSYGLSSKIMKEEKDRLSGEDTREGMTAIISIKHGDPQFEGQTKTKLGNSEVRQVVDKLFSEHFERFLYENPQVARTVVEKGIMAARARVAAKKAREVTRRKSALDVASLPGKLADCSSKSPEECEIFLVEGDSAGGSTKSGRDSRTQAILPLRGKILNVEKARLDRILNNNEIRQMITAFGTGIGGDFDLAKARYHKIVIMTDADVDGAHIRTLLLTFFYRFMRPLIEAGYVYIAQPPLYKLTQGKQKYYVYNDRELDKLKSELNPTPKWSIARYKGLGEMNADQLWETTMNPEHRALLQVKLEDAIEADQTFEMLMGDVVENRRQFIEDNAVYANLDF

> <PDB ID(s) of Target Chain>


> <UniProt (SwissProt) Recommended Name of Target Chain>
DNA gyrase subunit B

> <UniProt (SwissProt) Entry Name of Target Chain>
GYRB_STAAU

> <UniProt (SwissProt) Primary ID of Target Chain>
P0A0K8

> <UniProt (SwissProt) Secondary ID(s) of Target Chain>
P20832

> <UniProt (SwissProt) Alternative ID(s) of Target Chain>


> <UniProt (TrEMBL) Submitted Name of Target Chain>


> <UniProt (TrEMBL) Entry Name of Target Chain>


> <UniProt (TrEMBL) Primary ID of Target Chain>


> <UniProt (TrEMBL) Secondary ID(s) of Target Chain>


> <UniProt (TrEMBL) Alternative ID(s) of Target Chain>


$$$$

  SciTegic02271514412D

 29 32  0  0  0  0            999 V2000
   11.0866  -10.3717    0.0000 C   0  0  1  0  0  0
   10.2708  -10.4940    0.0000 O   0  0
   10.1349  -11.3077    0.0000 C   0  0
   10.8668  -11.6884    0.0000 C   0  0
   11.4550  -11.1099    0.0000 O   0  0
   11.8463   -8.9112    0.0000 C   0  0
   11.0222   -8.9487    0.0000 C   0  0
   10.6465   -9.6785    0.0000 C   0  0  1  0  0  0
   11.9109  -10.3338    0.0000 C   0  0
   12.2948   -9.6037    0.0000 N   0  0
    9.8223   -9.7159    0.0000 N   0  0
    9.3779   -9.0209    0.0000 C   0  0
    8.5538   -9.0583    0.0000 C   0  0
    9.7575   -8.2884    0.0000 O   0  0
   13.1189   -9.5662    0.0000 C   0  0
    8.0424   -8.4105    0.0000 C   0  0
    7.2701   -8.7008    0.0000 C   0  0
    7.3076   -9.5250    0.0000 C   0  0
    8.1030   -9.7440    0.0000 N   0  0
   13.6317  -10.2091    0.0000 N   0  0
   14.4038   -9.9188    0.0000 C   0  0
   14.3665   -9.0946    0.0000 C   0  0
   13.5711   -8.8756    0.0000 S   0  0
   15.0112   -8.5798    0.0000 C   0  0
   15.7794   -8.8808    0.0000 O   0  0
   14.8877   -7.7642    0.0000 O   0  0
    6.6629  -10.0397    0.0000 C   0  0
    8.2637   -7.6158    0.0000 Cl  0  0
    6.5814   -8.2466    0.0000 Cl  0  0
  1  2  1  1
  2  3  1  0
  3  4  1  0
  4  5  1  0
  5  1  1  0
  6  7  1  0
  6 10  1  0
  7  8  1  0
  8  1  1  0
  1  9  1  0
  9 10  1  0
  8 11  1  6
 11 12  1  0
 12 13  1  0
 12 14  2  0
 10 15  1  0
 13 16  2  0
 16 17  1  0
 17 18  2  0
 18 19  1  0
 19 13  1  0
 15 20  2  0
 20 21  1  0
 21 22  2  0
 22 23  1  0
 23 15  1  0
 22 24  1  0
 24 25  1  0
 24 26  2  0
 18 27  1  0
 16 28  1  0
 17 29  1  0
M  END
> <From> 
www.bindingDB.org

> <BindingDB Reactant_set_id>
50271399

> <Ligand InChI>
InChI=1S/C17H18Cl2N4O5S/c1-8-11(18)12(19)13(21-8)14(24)22-10-2-3-23(7-17(10)27-4-5-28-17)16-20-6-9(29-16)15(25)26/h6,10,21H,2-5,7H2,1H3,(H,22,24)(H,25,26)/t10-/m1/s1

> <Ligand InChI Key>
INFKOUBENIAOTD-SNVBAGLBSA-N

> <BindingDB MonomerID>
50047333

> <BindingDB Ligand Name>
CHEMBL3314542

> <Target Name Assigned by Curator or DataSource>
DNA Gyrase Subunit B

> <Target Source Organism According to Curator or DataSource>
Staphylococcus aureus

> <Ki (nM)>


> <IC50 (nM)>
 15

> <Kd (nM)>


> <EC50 (nM)>


> <kon (M-1-s-1)>


> <koff (s-1)>


> <pH>


> <Temp C>


> <Curation/DataSource>
ChEMBL

> <Article DOI>
10.1021/jm500462x

> <PMID>
24959892

> <PubChem AID>


> <Patent Number>


> <Authors>
Basarab, GS; Hill, PJ; Garner, CE; Hull, K; Green, O; Sherer, BA; Dangel, PB; Manchester, JI; Bist, S; Hauck, S; Zhou, F; Uria-Nickelsen, M; Illingworth, R; Alm, R; Rooney, M; Eakin, AE

> <Institution>
AstraZeneca

> <Link to Ligand in BindingDB>
http://www.bindingdb.org/bind/chemsearch/marvin/MolStructure.jsp?monomerid=50047333

> <Link to Ligand-Target Pair in BindingDB>
http://www.bindingdb.org/jsp/dbsearch/PrimarySearch_ki.jsp?energyterm=kJ/mole&tag=pol&polymerid=2626&target=DNA+Gyrase+Subunit+B&column=ki&startPg=0&Increment=50&submit=Search

> <Link to Ligand-Target Pair in BindingDB>
http://www.bindingdb.org/jsp/dbsearch/PrimarySearch_ki.jsp?energyterm=kJ/mole&tag=r21&monomerid=50047333&enzyme=DNA+Gyrase+Subunit+B&column=ki&startPg=0&Increment=50&submit=Search

> <Ligand HET ID in PDB>


> <PDB ID(s) for Ligand-Target Complex>


> <PubChem CID>
118707648

> <PubChem SID>
103978013

> <ChEBI ID of Ligand>


> <ChEMBL ID of Ligand>
CHEMBL417136

> <DrugBank ID of Ligand>


> <IUPHAR_GRAC ID of Ligand>


> <KEGG ID of Ligand>


> <ZINC ID of Ligand>
ZINC03922454

> <Number of Protein Chains in Target (>1 implies a multichain complex)>
1

> <BindingDB Target Chain Sequence>
MVTALSDVNNTDNYGAGQIQVLEGLEAVRKRPGMYIGSTSERGLHHLVWEIVDNSIDEALAGYANQIEVVIEKDNWIKVTDNGRGIPVDIQEKMGRPAVEVILTVLHAGGKFGGGGYKVSGGLHGVGSSVVNALSQDLEVYVHRNETIYHQAYKKGVPQFDLKEVGTTDKTGTVIRFKADGEIFTETTVYNYETLQQRIRELAFLNKGIQITLRDERDEENVREDSYHYEGGIKSYVELLNENKEPIHDEPIYIHQSKDDIEVEIAIQYNSGYATNLLTYANNIHTYEGGTHEDGFKRALTRVLNSYGLSSKIMKEEKDRLSGEDTREGMTAIISIKHGDPQFEGQTKTKLGNSEVRQVVDKLFSEHFERFLYENPQVARTVVEKGIMAARARVAAKKAREVTRRKSALDVASLPGKLADCSSKSPEECEIFLVEGDSAGGSTKSGRDSRTQAILPLRGKILNVEKARLDRILNNNEIRQMITAFGTGIGGDFDLAKARYHKIVIMTDADVDGAHIRTLLLTFFYRFMRPLIEAGYVYIAQPPLYKLTQGKQKYYVYNDRELDKLKSELNPTPKWSIARYKGLGEMNADQLWETTMNPEHRALLQVKLEDAIEADQTFEMLMGDVVENRRQFIEDNAVYANLDF

> <PDB ID(s) of Target Chain>


> <UniProt (SwissProt) Recommended Name of Target Chain>
DNA gyrase subunit B

> <UniProt (SwissProt) Entry Name of Target Chain>
GYRB_STAAU

> <UniProt (SwissProt) Primary ID of Target Chain>
P0A0K8

> <UniProt (SwissProt) Secondary ID(s) of Target Chain>
P20832

> <UniProt (SwissProt) Alternative ID(s) of Target Chain>


> <UniProt (TrEMBL) Submitted Name of Target Chain>


> <UniProt (TrEMBL) Entry Name of Target Chain>


> <UniProt (TrEMBL) Primary ID of Target Chain>


> <UniProt (TrEMBL) Secondary ID(s) of Target Chain>


> <UniProt (TrEMBL) Alternative ID(s) of Target Chain>


$$$$

  Mrv0541 11241420052D          

 27 29  0  0  0  0            999 V2000
    3.6777   -9.2207    0.0000 C   0  0  0  0  0  0  0  0  0  0  0  0
    3.6766  -10.0481    0.0000 C   0  0  0  0  0  0  0  0  0  0  0  0
    4.3913  -10.4609    0.0000 N   0  0  0  0  0  0  0  0  0  0  0  0
    4.3895   -8.8080    0.0000 C   0  0  0  0  0  0  0  0  0  0  0  0
    2.9631   -8.8084    0.0000 C   0  0  0  0  0  0  0  0  0  0  0  0
    2.9664   -7.9825    0.0000 C   0  0  0  0  0  0  0  0  0  0  0  0
    2.2527   -7.5702    0.0000 N   0  0  0  0  0  0  0  0  0  0  0  0
    1.5373   -7.9829    0.0000 C   0  0  0  0  0  0  0  0  0  0  0  0
    1.5402   -8.8123    0.0000 C   0  0  0  0  0  0  0  0  0  0  0  0
    2.2544   -9.2207    0.0000 C   0  0  0  0  0  0  0  0  0  0  0  0
    5.1050   -9.2171    0.0000 C   0  0  0  0  0  0  0  0  0  0  0  0
    5.1052  -10.0481    0.0000 C   0  0  0  0  0  0  0  0  0  0  0  0
    5.8957  -10.3048    0.0000 S   0  0  0  0  0  0  0  0  0  0  0  0
    6.3840   -9.6322    0.0000 C   0  0  0  0  0  0  0  0  0  0  0  0
    5.8953   -8.9602    0.0000 N   0  0  0  0  0  0  0  0  0  0  0  0
    7.2090   -9.6319    0.0000 N   0  0  0  0  0  0  0  0  0  0  0  0
    7.6212   -8.9173    0.0000 C   0  0  0  0  0  0  0  0  0  0  0  0
    8.4462   -8.9170    0.0000 O   0  0  0  0  0  0  0  0  0  0  0  0
    7.2085   -8.2030    0.0000 N   0  0  0  0  0  0  0  0  0  0  0  0
    7.6207   -7.4884    0.0000 C   0  0  0  0  0  0  0  0  0  0  0  0
    7.2080   -6.7741    0.0000 C   0  0  0  0  0  0  0  0  0  0  0  0
    2.9618  -10.4600    0.0000 O   0  0  0  0  0  0  0  0  0  0  0  0
    4.3915  -11.2860    0.0000 C   0  0  0  0  0  0  0  0  0  0  0  0
    3.6773  -11.6987    0.0000 C   0  0  0  0  0  0  0  0  0  0  0  0
    5.1062  -11.6983    0.0000 C   0  0  0  0  0  0  0  0  0  0  0  0
    0.8231   -7.5730    0.0000 C   0  0  0  0  0  0  0  0  0  0  0  0
    0.1079   -7.1617    0.0000 N   0  0  0  0  0  0  0  0  0  0  0  0
  1  2  1  0  0  0  0
  2  3  1  0  0  0  0
  3 12  1  0  0  0  0
 11  4  1  0  0  0  0
  4  1  2  0  0  0  0
  1  5  1  0  0  0  0
  5  6  2  0  0  0  0
  6  7  1  0  0  0  0
  7  8  2  0  0  0  0
  8  9  1  0  0  0  0
  9 10  2  0  0  0  0
 10  5  1  0  0  0  0
 11 12  2  0  0  0  0
 12 13  1  0  0  0  0
 13 14  1  0  0  0  0
 14 15  2  0  0  0  0
 15 11  1  0  0  0  0
 14 16  1  0  0  0  0
 16 17  1  0  0  0  0
 17 18  2  0  0  0  0
 17 19  1  0  0  0  0
 19 20  1  0  0  0  0
 20 21  1  0  0  0  0
  2 22  2  0  0  0  0
  3 23  1  0  0  0  0
 23 24  1  0  0  0  0
 23 25  1  0  0  0  0
 26 27  3  0  0  0  0
  8 26  1  0  0  0  0
M  END
> <From> 
www.bindingDB.org

> <BindingDB Reactant_set_id>
51091616

> <Ligand InChI>
InChI=1S/C18H18N6O2S/c1-4-20-17(26)23-18-22-14-7-13(11-5-6-12(8-19)21-9-11)15(25)24(10(2)3)16(14)27-18/h5-7,9-10H,4H2,1-3H3,(H2,20,22,23,26)

> <Ligand InChI Key>
XATCLTUMHJWJDN-UHFFFAOYSA-N

> <BindingDB MonomerID>
50447304

> <BindingDB Ligand Name>
CHEMBL3114201

> <Target Name Assigned by Curator or DataSource>
DNA gyrase subunit B

> <Target Source Organism According to Curator or DataSource>


> <Ki (nM)>


> <IC50 (nM)>
 15

> <Kd (nM)>


> <EC50 (nM)>


> <kon (M-1-s-1)>


> <koff (s-1)>


> <pH>


> <Temp C>


> <Curation/DataSource>
ChEMBL

> <Article DOI>
10.1016/j.bmcl.2013.12.080

> <PMID>
24405701

> <PubChem AID>


> <Patent Number>


> <Authors>
Kale, RR; Kale, MG; Waterson, D; Raichurkar, A; Hameed, SP; Manjunatha, MR; Kishore Reddy, BK; Malolanarasimhan, K; Shinde, V; Koushik, K; Jena, LK; Menasinakai, S; Humnabadkar, V; Madhavapeddi, P; Basavarajappa, H; Sharma, S; Nandishaiah, R; Mahesh Kumar, KN; Ganguly, S; Ahuja, V; Gaonkar, S; Naveen Kumar, CN; Ogg, D; Boriack-Sjodin, PA; Sambandamurthy, VK; de Sousa, SM; Ghorpade, SR

> <Institution>
AstraZeneca

> <Link to Ligand in BindingDB>
http://www.bindingdb.org/bind/chemsearch/marvin/MolStructure.jsp?monomerid=50447304

> <Link to Ligand-Target Pair in BindingDB>
http://www.bindingdb.org/jsp/dbsearch/PrimarySearch_ki.jsp?energyterm=kJ/mole&tag=pol&polymerid=50006452&target=DNA+gyrase+subunit+B&column=ki&startPg=0&Increment=50&submit=Search

> <Link to Ligand-Target Pair in BindingDB>
http://www.bindingdb.org/jsp/dbsearch/PrimarySearch_ki.jsp?energyterm=kJ/mole&tag=r21&monomerid=50447304&enzyme=DNA+gyrase+subunit+B&column=ki&startPg=0&Increment=50&submit=Search

> <Ligand HET ID in PDB>


> <PDB ID(s) for Ligand-Target Complex>


> <PubChem CID>
76332284

> <PubChem SID>
194945200

> <ChEBI ID of Ligand>


> <ChEMBL ID of Ligand>
CHEMBL3114201

> <DrugBank ID of Ligand>


> <IUPHAR_GRAC ID of Ligand>


> <KEGG ID of Ligand>


> <ZINC ID of Ligand>


> <Number of Protein Chains in Target (>1 implies a multichain complex)>
1

> <BindingDB Target Chain Sequence>
MAAQKNNAPKEYGADSITILEGLEAVRKRPGMYIGSTGERGLHHLIWEVVDNAVDEAMAGFATRVDVKIHADGSVEVRDDGRGIPVEMHATGMPTIDVVMTQLHAGGKFDGETYAVSGGLHGVGVSVVNALSTRLEATVLRDGYEWFQYYDRSVPGKLKQGGETKETGTTIRFWADPEIFETTDYNFETVARRLQEMAFLNKGLTIELTDERVTAEEVVDDVVKDTAEAPKTADEKAAEATGPSKVKHRVFHYPGGLVDYVKHINRTKTPIQQSIIDFDGKGPGHEVEIAMQWNAGYSESVHTFANTINTHEGGTHEEGFRAALTSVVNRYAKDKKLLKDKDPNLTGDDIREGLAAVISVKVAEPQFEGQTKTKLGNTEVKSFVQKICNEQLQHWFEANPAEAKTVVNKAVSSAQARIAARKARELVRRKSATDIGGLPGKLADCRSTDPSKSELYVVEGDSAGGSAKSGRDSMFQAILPLRGKIINVEKARIDRVLKNTEVQSIITALGTGIHDEFDISKLRYHKIVLMADADVDGQHISTLLLTLLFRFMKPLVENGHIFLAQPPLYKLKWQRSEPEFAYSDRERDGLLEAGRAAGKKINVDDGIQRYKGLGEMDAKELWETTMDPSVRVLRQVTLDDAAAADELFSILMGEDVEARRSFITRNAKDVRFLDV

> <PDB ID(s) of Target Chain>
4BAE

> <UniProt (SwissProt) Recommended Name of Target Chain>
DNA gyrase subunit B

> <UniProt (SwissProt) Entry Name of Target Chain>
GYRB_MYCSM

> <UniProt (SwissProt) Primary ID of Target Chain>
P0C559

> <UniProt (SwissProt) Secondary ID(s) of Target Chain>
P48355,Q59555

> <UniProt (SwissProt) Alternative ID(s) of Target Chain>


> <UniProt (TrEMBL) Submitted Name of Target Chain>


> <UniProt (TrEMBL) Entry Name of Target Chain>


> <UniProt (TrEMBL) Primary ID of Target Chain>


> <UniProt (TrEMBL) Secondary ID(s) of Target Chain>


> <UniProt (TrEMBL) Alternative ID(s) of Target Chain>


$$$$

  SciTegic02271514412D

 26 28  0  0  0  0            999 V2000
   20.0839   -2.7405    0.0000 C   0  0
   19.2598   -2.7780    0.0000 C   0  0
   18.8841   -3.5078    0.0000 C   0  0  2  0  0  0
   19.3244   -4.2006    0.0000 C   0  0  2  0  0  0
   20.1485   -4.1631    0.0000 C   0  0
   20.5324   -3.4329    0.0000 N   0  0
   18.0600   -3.5452    0.0000 N   0  0
   17.6155   -2.8502    0.0000 C   0  0
   16.7913   -2.8876    0.0000 C   0  0
   17.9952   -2.1177    0.0000 O   0  0
   21.3566   -3.3955    0.0000 C   0  0
   16.2800   -2.2398    0.0000 C   0  0
   15.5078   -2.5300    0.0000 C   0  0
   15.5452   -3.3542    0.0000 C   0  0
   16.3406   -3.5732    0.0000 N   0  0
   21.8693   -4.0383    0.0000 N   0  0
   22.6416   -3.7481    0.0000 C   0  0
   22.6042   -2.9239    0.0000 C   0  0
   21.8087   -2.7049    0.0000 S   0  0
   23.2489   -2.4091    0.0000 C   0  0
   24.0170   -2.7101    0.0000 O   0  0
   23.1255   -1.5934    0.0000 O   0  0
   14.9004   -3.8690    0.0000 C   0  0
   16.5013   -1.4451    0.0000 Cl  0  0
   14.8190   -2.0759    0.0000 Cl  0  0
   18.9436   -4.9324    0.0000 O   0  0
  1  2  1  0
  1  6  1  0
  2  3  1  0
  3  4  1  0
  4  5  1  0
  5  6  1  0
  3  7  1  6
  7  8  1  0
  8  9  1  0
  8 10  2  0
  6 11  1  0
  9 12  2  0
 12 13  1  0
 13 14  2  0
 14 15  1  0
 15  9  1  0
 11 16  2  0
 16 17  1  0
 17 18  2  0
 18 19  1  0
 19 11  1  0
 18 20  1  0
 20 21  1  0
 20 22  2  0
 14 23  1  0
 12 24  1  0
 13 25  1  0
  4 26  1  6
M  END
> <From> 
www.bindingDB.org

> <BindingDB Reactant_set_id>
50271386

> <Ligand InChI>
InChI=1S/C15H16Cl2N4O4S/c1-6-10(16)11(17)12(19-6)13(23)20-7-2-3-21(5-8(7)22)15-18-4-9(26-15)14(24)25/h4,7-8,19,22H,2-3,5H2,1H3,(H,20,23)(H,24,25)/t7-,8+/m1/s1

> <Ligand InChI Key>
KMBTXIXTDWDFJB-SFYZADRCSA-N

> <BindingDB MonomerID>
50047320

> <BindingDB Ligand Name>
CHEMBL3314529

> <Target Name Assigned by Curator or DataSource>
DNA Gyrase Subunit B

> <Target Source Organism According to Curator or DataSource>
Staphylococcus aureus

> <Ki (nM)>


> <IC50 (nM)>
 16

> <Kd (nM)>


> <EC50 (nM)>


> <kon (M-1-s-1)>


> <koff (s-1)>


> <pH>


> <Temp C>


> <Curation/DataSource>
ChEMBL

> <Article DOI>
10.1021/jm500462x

> <PMID>
24959892

> <PubChem AID>


> <Patent Number>


> <Authors>
Basarab, GS; Hill, PJ; Garner, CE; Hull, K; Green, O; Sherer, BA; Dangel, PB; Manchester, JI; Bist, S; Hauck, S; Zhou, F; Uria-Nickelsen, M; Illingworth, R; Alm, R; Rooney, M; Eakin, AE

> <Institution>
AstraZeneca

> <Link to Ligand in BindingDB>
http://www.bindingdb.org/bind/chemsearch/marvin/MolStructure.jsp?monomerid=50047320

> <Link to Ligand-Target Pair in BindingDB>
http://www.bindingdb.org/jsp/dbsearch/PrimarySearch_ki.jsp?energyterm=kJ/mole&tag=pol&polymerid=2626&target=DNA+Gyrase+Subunit+B&column=ki&startPg=0&Increment=50&submit=Search

> <Link to Ligand-Target Pair in BindingDB>
http://www.bindingdb.org/jsp/dbsearch/PrimarySearch_ki.jsp?energyterm=kJ/mole&tag=r21&monomerid=50047320&enzyme=DNA+Gyrase+Subunit+B&column=ki&startPg=0&Increment=50&submit=Search

> <Ligand HET ID in PDB>


> <PDB ID(s) for Ligand-Target Complex>


> <PubChem CID>
68519587

> <PubChem SID>
103978000

> <ChEBI ID of Ligand>


> <ChEMBL ID of Ligand>
CHEMBL33001

> <DrugBank ID of Ligand>


> <IUPHAR_GRAC ID of Ligand>


> <KEGG ID of Ligand>


> <ZINC ID of Ligand>
ZINC29220223

> <Number of Protein Chains in Target (>1 implies a multichain complex)>
1

> <BindingDB Target Chain Sequence>
MVTALSDVNNTDNYGAGQIQVLEGLEAVRKRPGMYIGSTSERGLHHLVWEIVDNSIDEALAGYANQIEVVIEKDNWIKVTDNGRGIPVDIQEKMGRPAVEVILTVLHAGGKFGGGGYKVSGGLHGVGSSVVNALSQDLEVYVHRNETIYHQAYKKGVPQFDLKEVGTTDKTGTVIRFKADGEIFTETTVYNYETLQQRIRELAFLNKGIQITLRDERDEENVREDSYHYEGGIKSYVELLNENKEPIHDEPIYIHQSKDDIEVEIAIQYNSGYATNLLTYANNIHTYEGGTHEDGFKRALTRVLNSYGLSSKIMKEEKDRLSGEDTREGMTAIISIKHGDPQFEGQTKTKLGNSEVRQVVDKLFSEHFERFLYENPQVARTVVEKGIMAARARVAAKKAREVTRRKSALDVASLPGKLADCSSKSPEECEIFLVEGDSAGGSTKSGRDSRTQAILPLRGKILNVEKARLDRILNNNEIRQMITAFGTGIGGDFDLAKARYHKIVIMTDADVDGAHIRTLLLTFFYRFMRPLIEAGYVYIAQPPLYKLTQGKQKYYVYNDRELDKLKSELNPTPKWSIARYKGLGEMNADQLWETTMNPEHRALLQVKLEDAIEADQTFEMLMGDVVENRRQFIEDNAVYANLDF

> <PDB ID(s) of Target Chain>


> <UniProt (SwissProt) Recommended Name of Target Chain>
DNA gyrase subunit B

> <UniProt (SwissProt) Entry Name of Target Chain>
GYRB_STAAU

> <UniProt (SwissProt) Primary ID of Target Chain>
P0A0K8

> <UniProt (SwissProt) Secondary ID(s) of Target Chain>
P20832

> <UniProt (SwissProt) Alternative ID(s) of Target Chain>


> <UniProt (TrEMBL) Submitted Name of Target Chain>


> <UniProt (TrEMBL) Entry Name of Target Chain>


> <UniProt (TrEMBL) Primary ID of Target Chain>


> <UniProt (TrEMBL) Secondary ID(s) of Target Chain>


> <UniProt (TrEMBL) Alternative ID(s) of Target Chain>


$$$$

  Mrv0541 11241420052D          

 28 31  0  0  0  0            999 V2000
    3.4944   -3.6541    0.0000 C   0  0  0  0  0  0  0  0  0  0  0  0
    3.4933   -4.4815    0.0000 C   0  0  0  0  0  0  0  0  0  0  0  0
    4.2081   -4.8944    0.0000 N   0  0  0  0  0  0  0  0  0  0  0  0
    4.2062   -3.2414    0.0000 C   0  0  0  0  0  0  0  0  0  0  0  0
    4.9217   -3.6505    0.0000 C   0  0  0  0  0  0  0  0  0  0  0  0
    4.9219   -4.4815    0.0000 C   0  0  0  0  0  0  0  0  0  0  0  0
    5.7124   -4.7382    0.0000 S   0  0  0  0  0  0  0  0  0  0  0  0
    6.2007   -4.0656    0.0000 C   0  0  0  0  0  0  0  0  0  0  0  0
    5.7120   -3.3935    0.0000 N   0  0  0  0  0  0  0  0  0  0  0  0
    7.0257   -4.0654    0.0000 N   0  0  0  0  0  0  0  0  0  0  0  0
    7.4379   -3.3507    0.0000 C   0  0  0  0  0  0  0  0  0  0  0  0
    8.2630   -3.3504    0.0000 O   0  0  0  0  0  0  0  0  0  0  0  0
    7.0252   -2.6364    0.0000 N   0  0  0  0  0  0  0  0  0  0  0  0
    7.4374   -1.9218    0.0000 C   0  0  0  0  0  0  0  0  0  0  0  0
    7.0247   -1.2074    0.0000 C   0  0  0  0  0  0  0  0  0  0  0  0
    2.7785   -4.8934    0.0000 O   0  0  0  0  0  0  0  0  0  0  0  0
    4.2084   -5.7194    0.0000 C   0  0  0  0  0  0  0  0  0  0  0  0
    3.4940   -6.1321    0.0000 C   0  0  0  0  0  0  0  0  0  0  0  0
    4.9229   -6.1317    0.0000 C   0  0  0  0  0  0  0  0  0  0  0  0
    2.7798   -3.2418    0.0000 C   0  0  0  0  0  0  0  0  0  0  0  0
    2.7831   -2.4159    0.0000 C   0  0  0  0  0  0  0  0  0  0  0  0
    1.3569   -3.2456    0.0000 C   0  0  0  0  0  0  0  0  0  0  0  0
    2.0711   -3.6541    0.0000 C   0  0  0  0  0  0  0  0  0  0  0  0
    1.3540   -2.4164    0.0000 C   0  0  0  0  0  0  0  0  0  0  0  0
    2.0649   -2.0018    0.0000 N   0  0  0  0  0  0  0  0  0  0  0  0
    1.8902   -1.1975    0.0000 N   0  0  0  0  0  0  0  0  0  0  0  0
    1.0713   -1.1152    0.0000 N   0  0  0  0  0  0  0  0  0  0  0  0
    0.7401   -1.8684    0.0000 C   0  0  0  0  0  0  0  0  0  0  0  0
  1  2  1  0  0  0  0
  2  3  1  0  0  0  0
  3  6  1  0  0  0  0
  5  4  1  0  0  0  0
  4  1  2  0  0  0  0
  5  6  2  0  0  0  0
  6  7  1  0  0  0  0
  7  8  1  0  0  0  0
  8  9  2  0  0  0  0
  9  5  1  0  0  0  0
  8 10  1  0  0  0  0
 10 11  1  0  0  0  0
 11 12  2  0  0  0  0
 11 13  1  0  0  0  0
 13 14  1  0  0  0  0
 14 15  1  0  0  0  0
  2 16  2  0  0  0  0
  3 17  1  0  0  0  0
 17 18  1  0  0  0  0
 17 19  1  0  0  0  0
  1 20  1  0  0  0  0
 20 21  2  0  0  0  0
 21 25  1  0  0  0  0
 24 22  1  0  0  0  0
 22 23  2  0  0  0  0
 23 20  1  0  0  0  0
 24 25  1  0  0  0  0
 25 26  1  0  0  0  0
 26 27  2  0  0  0  0
 27 28  1  0  0  0  0
 28 24  2  0  0  0  0
M  END
> <From> 
www.bindingDB.org

> <BindingDB Reactant_set_id>
51091606

> <Ligand InChI>
InChI=1S/C18H19N7O2S/c1-4-19-17(27)22-18-21-14-7-13(15(26)25(10(2)3)16(14)28-18)11-5-6-12-8-20-23-24(12)9-11/h5-10H,4H2,1-3H3,(H2,19,21,22,27)

> <Ligand InChI Key>
YSUBCEOGBDXSQS-UHFFFAOYSA-N

> <BindingDB MonomerID>
50447294

> <BindingDB Ligand Name>
CHEMBL3114193

> <Target Name Assigned by Curator or DataSource>
DNA gyrase subunit B

> <Target Source Organism According to Curator or DataSource>


> <Ki (nM)>


> <IC50 (nM)>
 16

> <Kd (nM)>


> <EC50 (nM)>


> <kon (M-1-s-1)>


> <koff (s-1)>


> <pH>


> <Temp C>


> <Curation/DataSource>
ChEMBL

> <Article DOI>
10.1016/j.bmcl.2013.12.080

> <PMID>
24405701

> <PubChem AID>


> <Patent Number>


> <Authors>
Kale, RR; Kale, MG; Waterson, D; Raichurkar, A; Hameed, SP; Manjunatha, MR; Kishore Reddy, BK; Malolanarasimhan, K; Shinde, V; Koushik, K; Jena, LK; Menasinakai, S; Humnabadkar, V; Madhavapeddi, P; Basavarajappa, H; Sharma, S; Nandishaiah, R; Mahesh Kumar, KN; Ganguly, S; Ahuja, V; Gaonkar, S; Naveen Kumar, CN; Ogg, D; Boriack-Sjodin, PA; Sambandamurthy, VK; de Sousa, SM; Ghorpade, SR

> <Institution>
AstraZeneca

> <Link to Ligand in BindingDB>
http://www.bindingdb.org/bind/chemsearch/marvin/MolStructure.jsp?monomerid=50447294

> <Link to Ligand-Target Pair in BindingDB>
http://www.bindingdb.org/jsp/dbsearch/PrimarySearch_ki.jsp?energyterm=kJ/mole&tag=pol&polymerid=50006452&target=DNA+gyrase+subunit+B&column=ki&startPg=0&Increment=50&submit=Search

> <Link to Ligand-Target Pair in BindingDB>
http://www.bindingdb.org/jsp/dbsearch/PrimarySearch_ki.jsp?energyterm=kJ/mole&tag=r21&monomerid=50447294&enzyme=DNA+gyrase+subunit+B&column=ki&startPg=0&Increment=50&submit=Search

> <Ligand HET ID in PDB>


> <PDB ID(s) for Ligand-Target Complex>


> <PubChem CID>
76332283

> <PubChem SID>
194945190

> <ChEBI ID of Ligand>


> <ChEMBL ID of Ligand>
CHEMBL3114193

> <DrugBank ID of Ligand>


> <IUPHAR_GRAC ID of Ligand>


> <KEGG ID of Ligand>


> <ZINC ID of Ligand>


> <Number of Protein Chains in Target (>1 implies a multichain complex)>
1

> <BindingDB Target Chain Sequence>
MAAQKNNAPKEYGADSITILEGLEAVRKRPGMYIGSTGERGLHHLIWEVVDNAVDEAMAGFATRVDVKIHADGSVEVRDDGRGIPVEMHATGMPTIDVVMTQLHAGGKFDGETYAVSGGLHGVGVSVVNALSTRLEATVLRDGYEWFQYYDRSVPGKLKQGGETKETGTTIRFWADPEIFETTDYNFETVARRLQEMAFLNKGLTIELTDERVTAEEVVDDVVKDTAEAPKTADEKAAEATGPSKVKHRVFHYPGGLVDYVKHINRTKTPIQQSIIDFDGKGPGHEVEIAMQWNAGYSESVHTFANTINTHEGGTHEEGFRAALTSVVNRYAKDKKLLKDKDPNLTGDDIREGLAAVISVKVAEPQFEGQTKTKLGNTEVKSFVQKICNEQLQHWFEANPAEAKTVVNKAVSSAQARIAARKARELVRRKSATDIGGLPGKLADCRSTDPSKSELYVVEGDSAGGSAKSGRDSMFQAILPLRGKIINVEKARIDRVLKNTEVQSIITALGTGIHDEFDISKLRYHKIVLMADADVDGQHISTLLLTLLFRFMKPLVENGHIFLAQPPLYKLKWQRSEPEFAYSDRERDGLLEAGRAAGKKINVDDGIQRYKGLGEMDAKELWETTMDPSVRVLRQVTLDDAAAADELFSILMGEDVEARRSFITRNAKDVRFLDV

> <PDB ID(s) of Target Chain>
4BAE

> <UniProt (SwissProt) Recommended Name of Target Chain>
DNA gyrase subunit B

> <UniProt (SwissProt) Entry Name of Target Chain>
GYRB_MYCSM

> <UniProt (SwissProt) Primary ID of Target Chain>
P0C559

> <UniProt (SwissProt) Secondary ID(s) of Target Chain>
P48355,Q59555

> <UniProt (SwissProt) Alternative ID(s) of Target Chain>


> <UniProt (TrEMBL) Submitted Name of Target Chain>


> <UniProt (TrEMBL) Entry Name of Target Chain>


> <UniProt (TrEMBL) Primary ID of Target Chain>


> <UniProt (TrEMBL) Secondary ID(s) of Target Chain>


> <UniProt (TrEMBL) Alternative ID(s) of Target Chain>


$$$$

  SciTegic09291413392D

 26 28  0  0  0  0            999 V2000
   17.6549  -16.0549    0.0000 C   0  0
   17.6537  -16.8744    0.0000 C   0  0
   18.3618  -17.2834    0.0000 N   0  0
   18.3600  -15.6460    0.0000 C   0  0
   19.0686  -16.0513    0.0000 C   0  0
   19.0734  -16.8744    0.0000 C   0  0
   19.8578  -17.1243    0.0000 S   0  0
   20.3378  -16.4554    0.0000 C   0  0
   19.8500  -15.7924    0.0000 N   0  0
   16.9491  -15.6466    0.0000 C   0  0
   16.9503  -14.8283    0.0000 C   0  0
   16.2433  -14.4200    0.0000 N   0  0
   15.5347  -14.8288    0.0000 C   0  0
   15.5375  -15.6502    0.0000 N   0  0
   21.1550  -16.4506    0.0000 N   0  0
   21.5594  -15.7405    0.0000 C   0  0
   22.3766  -15.7357    0.0000 N   0  0
   21.1466  -15.0352    0.0000 O   0  0
   22.7810  -15.0256    0.0000 C   0  0
   23.5982  -15.0207    0.0000 C   0  0
   16.2390  -16.0561    0.0000 C   0  0
   16.9457  -17.2825    0.0000 O   0  0
   16.2383  -16.8733    0.0000 C   0  0
   15.5303  -17.2813    0.0000 C   0  0
   14.8229  -16.8722    0.0000 O   0  0
   14.1149  -17.2802    0.0000 C   0  0
  1  2  2  0
  2  3  1  0
  3  6  2  0
  5  4  2  0
  4  1  1  0
  5  6  1  0
  6  7  1  0
  7  8  1  0
  8  9  2  0
  9  5  1  0
 10 11  2  0
 11 12  1  0
 12 13  2  0
 13 14  1  0
 14 21  2  0
 21 10  1  0
  1 10  1  0
  8 15  1  0
 15 16  1  0
 16 17  1  0
 16 18  2  0
 17 19  1  0
 19 20  1  0
  2 22  1  0
 22 23  1  0
 23 24  1  0
 24 25  1  0
 25 26  1  0
M  END
> <From> 
www.bindingDB.org

> <BindingDB Reactant_set_id>
50089907

> <Ligand InChI>
InChI=1S/C16H18N6O3S/c1-3-19-15(23)22-16-20-12-6-11(10-7-17-9-18-8-10)13(21-14(12)26-16)25-5-4-24-2/h6-9H,3-5H2,1-2H3,(H2,19,20,22,23)

> <Ligand InChI Key>
DFUGRSJYZFEARP-UHFFFAOYSA-N

> <BindingDB MonomerID>
50010351

> <BindingDB Ligand Name>
CHEMBL3263595

> <Target Name Assigned by Curator or DataSource>
DNA gyrase subunit B

> <Target Source Organism According to Curator or DataSource>


> <Ki (nM)>


> <IC50 (nM)>
 17

> <Kd (nM)>


> <EC50 (nM)>


> <kon (M-1-s-1)>


> <koff (s-1)>


> <pH>


> <Temp C>


> <Curation/DataSource>
ChEMBL

> <Article DOI>
10.1021/jm401268f

> <PMID>
24088190

> <PubChem AID>


> <Patent Number>


> <Authors>
Ahuja, V; Ahuja, V; Basavarajappa, H; Basavarajappa, H; P, SH; P, SH; Boriack-Sjodin, PA; Boriack-Sjodin, PA; McKinney, D; McKinney, D; Ganguly, S; Ganguly, S; Kranthi, U; Kranthi, U; Gaonkar, S; Gaonkar, S; Jena, Lk; Jena, Lk; Ghorpade, SR; Ghorpade, SR; Ghosh, A; Ghosh, A; Barde, S; Barde, S; Kale, MG; Kale, MG; Koushik, K; Koushik, K; Kumar, CN; Kumar, CN; Manjunatha, MR; Manjunatha, MR; Ogg, D; Ogg, D; Panduga, V; Panduga, V; Ramya, VK; Ramya, VK; Reddy, J; Reddy, J; Kumar, KN; Kumar, KN; Giridhar, J; Giridhar, J; Rudrapatna, S; Rudrapatna, S; Sharma, S; Sharma, S; Tucker, JA; Tucker, JA; Vachaspati, P; Vachaspati, P; Waterson, D; Waterson, D; de Sousa, SM; de Sousa, SM

> <Institution>
AstraZeneca India Pvt. Ltd.

> <Link to Ligand in BindingDB>
http://www.bindingdb.org/bind/chemsearch/marvin/MolStructure.jsp?monomerid=50010351

> <Link to Ligand-Target Pair in BindingDB>
http://www.bindingdb.org/jsp/dbsearch/PrimarySearch_ki.jsp?energyterm=kJ/mole&tag=pol&polymerid=50006452&target=DNA+gyrase+subunit+B&column=ki&startPg=0&Increment=50&submit=Search

> <Link to Ligand-Target Pair in BindingDB>
http://www.bindingdb.org/jsp/dbsearch/PrimarySearch_ki.jsp?energyterm=kJ/mole&tag=r21&monomerid=50010351&enzyme=DNA+gyrase+subunit+B&column=ki&startPg=0&Increment=50&submit=Search

> <Ligand HET ID in PDB>


> <PDB ID(s) for Ligand-Target Complex>


> <PubChem CID>
59352805

> <PubChem SID>
103923165

> <ChEBI ID of Ligand>


> <ChEMBL ID of Ligand>
CHEMBL3263595

> <DrugBank ID of Ligand>


> <IUPHAR_GRAC ID of Ligand>


> <KEGG ID of Ligand>


> <ZINC ID of Ligand>
ZINC13446645

> <Number of Protein Chains in Target (>1 implies a multichain complex)>
1

> <BindingDB Target Chain Sequence>
MAAQKNNAPKEYGADSITILEGLEAVRKRPGMYIGSTGERGLHHLIWEVVDNAVDEAMAGFATRVDVKIHADGSVEVRDDGRGIPVEMHATGMPTIDVVMTQLHAGGKFDGETYAVSGGLHGVGVSVVNALSTRLEATVLRDGYEWFQYYDRSVPGKLKQGGETKETGTTIRFWADPEIFETTDYNFETVARRLQEMAFLNKGLTIELTDERVTAEEVVDDVVKDTAEAPKTADEKAAEATGPSKVKHRVFHYPGGLVDYVKHINRTKTPIQQSIIDFDGKGPGHEVEIAMQWNAGYSESVHTFANTINTHEGGTHEEGFRAALTSVVNRYAKDKKLLKDKDPNLTGDDIREGLAAVISVKVAEPQFEGQTKTKLGNTEVKSFVQKICNEQLQHWFEANPAEAKTVVNKAVSSAQARIAARKARELVRRKSATDIGGLPGKLADCRSTDPSKSELYVVEGDSAGGSAKSGRDSMFQAILPLRGKIINVEKARIDRVLKNTEVQSIITALGTGIHDEFDISKLRYHKIVLMADADVDGQHISTLLLTLLFRFMKPLVENGHIFLAQPPLYKLKWQRSEPEFAYSDRERDGLLEAGRAAGKKINVDDGIQRYKGLGEMDAKELWETTMDPSVRVLRQVTLDDAAAADELFSILMGEDVEARRSFITRNAKDVRFLDV

> <PDB ID(s) of Target Chain>
4BAE

> <UniProt (SwissProt) Recommended Name of Target Chain>
DNA gyrase subunit B

> <UniProt (SwissProt) Entry Name of Target Chain>
GYRB_MYCSM

> <UniProt (SwissProt) Primary ID of Target Chain>
P0C559

> <UniProt (SwissProt) Secondary ID(s) of Target Chain>
P48355,Q59555

> <UniProt (SwissProt) Alternative ID(s) of Target Chain>


> <UniProt (TrEMBL) Submitted Name of Target Chain>


> <UniProt (TrEMBL) Entry Name of Target Chain>


> <UniProt (TrEMBL) Primary ID of Target Chain>


> <UniProt (TrEMBL) Secondary ID(s) of Target Chain>


> <UniProt (TrEMBL) Alternative ID(s) of Target Chain>


$$$$

  Mrv0541 11231413392D          

 46 50  0  0  0  0            999 V2000
   -1.0735  -10.8437    0.0000 C   0  0  0  0  0  0  0  0  0  0  0  0
   -1.7995  -10.4421    0.0000 C   0  0  1  0  0  0  0  0  0  0  0  0
   -2.5062  -10.8677    0.0000 C   0  0  2  0  0  0  0  0  0  0  0  0
   -2.4933  -11.6965    0.0000 C   0  0  2  0  0  0  0  0  0  0  0  0
   -1.7674  -12.0980    0.0000 C   0  0  1  0  0  0  0  0  0  0  0  0
   -1.0543  -11.6708    0.0000 O   0  0  0  0  0  0  0  0  0  0  0  0
   -1.7531  -12.9229    0.0000 O   0  0  0  0  0  0  0  0  0  0  0  0
   -1.0333  -13.3342    0.0000 C   0  0  0  0  0  0  0  0  0  0  0  0
   -1.0341  -14.1588    0.0000 C   0  0  0  0  0  0  0  0  0  0  0  0
   -0.3184  -12.9199    0.0000 C   0  0  0  0  0  0  0  0  0  0  0  0
    0.3960  -13.3377    0.0000 C   0  0  0  0  0  0  0  0  0  0  0  0
    0.3941  -14.1624    0.0000 C   0  0  0  0  0  0  0  0  0  0  0  0
   -0.3211  -14.5739    0.0000 C   0  0  0  0  0  0  0  0  0  0  0  0
   -0.3223  -15.3946    0.0000 O   0  0  0  0  0  0  0  0  0  0  0  0
    0.3901  -15.8099    0.0000 C   0  0  0  0  0  0  0  0  0  0  0  0
    1.1053  -15.3984    0.0000 C   0  0  0  0  0  0  0  0  0  0  0  0
    1.1082  -14.5715    0.0000 C   0  0  0  0  0  0  0  0  0  0  0  0
   -1.7494  -14.5696    0.0000 Cl  0  0  0  0  0  0  0  0  0  0  0  0
    1.8227  -14.1591    0.0000 O   0  0  0  0  0  0  0  0  0  0  0  0
    0.3876  -16.6349    0.0000 O   0  0  0  0  0  0  0  0  0  0  0  0
    1.8187  -15.8127    0.0000 N   0  0  0  0  0  0  0  0  0  0  0  0
    1.8166  -16.6377    0.0000 C   0  0  0  0  0  0  0  0  0  0  0  0
    1.1012  -17.0483    0.0000 O   0  0  0  0  0  0  0  0  0  0  0  0
    2.5301  -17.0519    0.0000 C   0  0  0  0  0  0  0  0  0  0  0  0
    2.5251  -17.8761    0.0000 C   0  0  0  0  0  0  0  0  0  0  0  0
    3.2377  -18.2903    0.0000 C   0  0  0  0  0  0  0  0  0  0  0  0
    3.9542  -17.8796    0.0000 C   0  0  0  0  0  0  0  0  0  0  0  0
    3.9536  -17.0503    0.0000 C   0  0  0  0  0  0  0  0  0  0  0  0
    3.2405  -16.6398    0.0000 C   0  0  0  0  0  0  0  0  0  0  0  0
    4.6683  -18.2928    0.0000 O   0  0  0  0  0  0  0  0  0  0  0  0
    4.6677  -16.6370    0.0000 C   0  0  0  0  0  0  0  0  0  0  0  0
   -0.2460  -10.8248    0.0000 C   0  0  0  0  0  0  0  0  0  0  0  0
   -1.0844  -10.0206    0.0000 C   0  0  0  0  0  0  0  0  0  0  0  0
   -1.8145   -9.6173    0.0000 O   0  0  0  0  0  0  0  0  0  0  0  0
   -1.1078   -9.1917    0.0000 C   0  0  0  0  0  0  0  0  0  0  0  0
   -3.2276  -10.4673    0.0000 O   0  0  0  0  0  0  0  0  0  0  0  0
   -3.2416   -9.6424    0.0000 C   0  0  0  0  0  0  0  0  0  0  0  0
   -3.9626   -9.2418    0.0000 C   0  0  0  0  0  0  0  0  0  0  0  0
   -2.5342   -9.2179    0.0000 O   0  0  0  0  0  0  0  0  0  0  0  0
   -3.2006  -12.1211    0.0000 O   0  0  0  0  0  0  0  0  0  0  0  0
    3.2353  -19.1153    0.0000 C   0  0  0  0  0  0  0  0  0  0  0  0
   -4.1984   -8.4483    0.0000 C   0  0  0  0  0  0  0  0  0  0  0  0
   -5.0231   -8.4252    0.0000 C   0  0  0  0  0  0  0  0  0  0  0  0
   -5.2999   -9.2024    0.0000 C   0  0  0  0  0  0  0  0  0  0  0  0
   -4.6463   -9.7057    0.0000 N   0  0  0  0  0  0  0  0  0  0  0  0
   -6.0178   -9.6065    0.0000 C   0  0  0  0  0  0  0  0  0  0  0  0
 21 22  1  0  0  0  0
 11 10  1  0  0  0  0
 22 23  2  0  0  0  0
 11 12  2  0  0  0  0
 22 24  1  0  0  0  0
  3  4  1  0  0  0  0
 24 25  2  0  0  0  0
 12 13  1  0  0  0  0
 25 26  1  0  0  0  0
  4  5  1  0  0  0  0
 26 27  2  0  0  0  0
  5  6  1  0  0  0  0
 27 28  1  0  0  0  0
 28 29  2  0  0  0  0
 29 24  1  0  0  0  0
  5  7  1  1  0  0  0
 27 30  1  0  0  0  0
  2  1  1  0  0  0  0
 28 31  1  0  0  0  0
  7  8  1  0  0  0  0
  1 32  1  0  0  0  0
 12 17  1  0  0  0  0
  1 33  1  0  0  0  0
 13 14  1  0  0  0  0
  2 34  1  1  0  0  0
 14 15  1  0  0  0  0
 34 35  1  0  0  0  0
 15 16  1  0  0  0  0
  3 36  1  6  0  0  0
 16 17  2  0  0  0  0
 36 37  1  0  0  0  0
  8  9  1  0  0  0  0
 37 38  1  0  0  0  0
  9 18  1  0  0  0  0
 37 39  2  0  0  0  0
  1  6  1  0  0  0  0
  4 40  1  6  0  0  0
 17 19  1  0  0  0  0
 26 41  1  0  0  0  0
 38 42  2  0  0  0  0
  3  2  1  0  0  0  0
 15 20  2  0  0  0  0
  8 10  2  0  0  0  0
 16 21  1  0  0  0  0
 42 43  1  0  0  0  0
 43 44  2  0  0  0  0
 44 45  1  0  0  0  0
 45 38  1  0  0  0  0
  9 13  2  0  0  0  0
 44 46  1  0  0  0  0
M  END
> <From> 
www.bindingDB.org

> <BindingDB Reactant_set_id>
50607709

> <Ligand InChI>
InChI=1S/C32H33ClN2O11/c1-13-11-16(12-14(2)22(13)36)28(39)35-21-23(37)17-8-10-19(20(33)25(17)44-30(21)41)43-31-24(38)26(27(42-6)32(4,5)46-31)45-29(40)18-9-7-15(3)34-18/h7-12,24,26-27,31,34,36-38H,1-6H3,(H,35,39)/t24-,26+,27-,31-/m1/s1

> <Ligand InChI Key>
DOFGTZAYJOIEPN-PPOHMGSZSA-N

> <BindingDB MonomerID>
50330319

> <BindingDB Ligand Name>
(3R,4S,5R,6S)-6-(8-chloro-4-hydroxy-3-(4-hydroxy-3,5-dimethylbenzamido)-2-oxo-2H-chromen-7-yloxy)-5-hydroxy-3-methoxy-2,2-dimethyltetrahydro-2H-pyran-4-yl 5-methyl-1H-pyrrole-2-carboxylate::CHEMBL1275840

> <Target Name Assigned by Curator or DataSource>
DNA Gyrase Subunit B

> <Target Source Organism According to Curator or DataSource>
Escherichia coli

> <Ki (nM)>


> <IC50 (nM)>
 17

> <Kd (nM)>


> <EC50 (nM)>


> <kon (M-1-s-1)>


> <koff (s-1)>


> <pH>


> <Temp C>


> <Curation/DataSource>
ChEMBL

> <Article DOI>
10.1128/AAC.01235-07

> <PMID>
18347114

> <PubChem AID>


> <Patent Number>


> <Authors>
Anderle, C; Stieger, M; Burrell, M; Reinelt, S; Maxwell, A; Page, M; Heide, L

> <Institution>
Universit&#228;t T&#252;bingen

> <Link to Ligand in BindingDB>
http://www.bindingdb.org/bind/chemsearch/marvin/MolStructure.jsp?monomerid=50330319

> <Link to Ligand-Target Pair in BindingDB>
http://www.bindingdb.org/jsp/dbsearch/PrimarySearch_ki.jsp?energyterm=kJ/mole&tag=pol&polymerid=2630&target=DNA+Gyrase+Subunit+B&column=ki&startPg=0&Increment=50&submit=Search

> <Link to Ligand-Target Pair in BindingDB>
http://www.bindingdb.org/jsp/dbsearch/PrimarySearch_ki.jsp?energyterm=kJ/mole&tag=r21&monomerid=50330319&enzyme=DNA+Gyrase+Subunit+B&column=ki&startPg=0&Increment=50&submit=Search

> <Ligand HET ID in PDB>


> <PDB ID(s) for Ligand-Target Complex>


> <PubChem CID>
54729435

> <PubChem SID>
123109434

> <ChEBI ID of Ligand>


> <ChEMBL ID of Ligand>
CHEMBL1275840

> <DrugBank ID of Ligand>


> <IUPHAR_GRAC ID of Ligand>


> <KEGG ID of Ligand>


> <ZINC ID of Ligand>
ZINC72136417

> <Number of Protein Chains in Target (>1 implies a multichain complex)>
1

> <BindingDB Target Chain Sequence>
MSNSYDSSSIKVLKGLDAVRKRPGMYIGDTDDGTGLHHMVFEVVDNAIDEALAGHCKEII
VTIHADNSVSVQDDGRGIPTGIHPEEGVSAAEVIMTVLHAGGKFDDNSYKVSGGLHGVGV
SVVNALSQKLELVIQREGKIHRQIYEHGVPQAPLAVTGETEKTGTMVRFWPSLETFTNVT
EFEYEILAKRLRELSFLNSGVSIRLRDKRDGKEDHFHYEGGIKAFVEYLNKNKTPIHPNI
FYFSTEKDGIGVEVALQWNDGFQENIYCFTNNIPQRDGGTHLAGFRAAMTRTLNAYMDKE
GYSKKAKVSATGDDAREGLIAVVSVKVPDPKFSSQTKDKLVSSEVKSAVEQQMNELLAEY
LLENPTDAKIVVGKIIDAARAREAARRAREMTRRKGALDLAGLPGKLADCQERDPALSEL
YLVEGDSAGGSAKQGRNRKNQAILPLKGKILNVEKARFDKMLSSQEVATLITALGCGIGR
DEYNPDKLRYHSIIIMTDADVDGSHIRTLLLTFFYRQMPEIVERGHVYIAQPPLYKVKKG
KQEQYIKDDEAMDQYQISIALDGATLHTNASAPALAGEALEKLVSEYNATQKMINRMERR
YPKAMLKELIYQPTLTEADLSDEQTVTRWVNALVSELNDKEQHGSQWKFDVHTNAEQNLF
EPIVRVRTHGVDTDYPLDHEFITGGEYRRICTLGEKLRGLLEEDAFIERGERRQPVASFE
QALDWLVKESRRGLSIQRYKGLGEMNPEQLWETTMDPESRRMLRVTVKDAIAADQLFTTL
MGDAVEPRRAFIEENALKAANIDI

> <PDB ID(s) of Target Chain>
1KZN,3G7E,3NUH,4DUH,4HYP,4KFG,4PRV,4PRX,4PU9,4WUB,4WUC,4WUD,4XTJ,4ZVI,5L3J,5MMN,5MMO,5MMP,5Z4H,5Z4O,5Z9B,5Z9E,5Z9F,5Z9L,5Z9M,5Z9N,5Z9Q,6ENG,6F86,6F8J,6F94,6F96

> <UniProt (SwissProt) Recommended Name of Target Chain>
DNA gyrase subunit B

> <UniProt (SwissProt) Entry Name of Target Chain>
GYRB_ECOLI

> <UniProt (SwissProt) Primary ID of Target Chain>
P0AES6

> <UniProt (SwissProt) Secondary ID(s) of Target Chain>
O08438,P06982,Q2M811

> <UniProt (SwissProt) Alternative ID(s) of Target Chain>


> <UniProt (TrEMBL) Submitted Name of Target Chain>


> <UniProt (TrEMBL) Entry Name of Target Chain>


> <UniProt (TrEMBL) Primary ID of Target Chain>


> <UniProt (TrEMBL) Secondary ID(s) of Target Chain>


> <UniProt (TrEMBL) Alternative ID(s) of Target Chain>


$$$$

  SciTegic02271514412D

 27 29  0  0  0  0            999 V2000
    8.0881   -2.9280    0.0000 C   0  0
    7.2640   -2.9655    0.0000 C   0  0
    6.8883   -3.6953    0.0000 C   0  0  2  0  0  0
    7.3286   -4.3880    0.0000 C   0  0  2  0  0  0
    8.1527   -4.3506    0.0000 C   0  0
    8.5366   -3.6205    0.0000 N   0  0
    6.0642   -3.7327    0.0000 N   0  0
    5.6197   -3.0377    0.0000 C   0  0
    4.7956   -3.0751    0.0000 C   0  0
    5.9994   -2.3052    0.0000 O   0  0
    9.3608   -3.5830    0.0000 C   0  0
    4.2842   -2.4273    0.0000 C   0  0
    3.5119   -2.7176    0.0000 C   0  0
    3.5494   -3.5418    0.0000 C   0  0
    4.3447   -3.7608    0.0000 N   0  0
    9.8735   -4.2259    0.0000 N   0  0
   10.6458   -3.9356    0.0000 C   0  0
   10.6083   -3.1113    0.0000 C   0  0
    9.8130   -2.8924    0.0000 S   0  0
   11.2530   -2.5966    0.0000 C   0  0
   12.0212   -2.8976    0.0000 O   0  0
   11.1296   -1.7810    0.0000 O   0  0
    2.9046   -4.0565    0.0000 C   0  0
    4.5054   -1.6326    0.0000 Cl  0  0
    2.8232   -2.2634    0.0000 Cl  0  0
    6.9478   -5.1200    0.0000 C   0  0
    7.3955   -5.8222    0.0000 O   0  0
  1  2  1  0
  1  6  1  0
  2  3  1  0
  3  4  1  0
  4  5  1  0
  5  6  1  0
  3  7  1  6
  7  8  1  0
  8  9  1  0
  8 10  2  0
  6 11  1  0
  9 12  2  0
 12 13  1  0
 13 14  2  0
 14 15  1  0
 15  9  1  0
 11 16  2  0
 16 17  1  0
 17 18  2  0
 18 19  1  0
 19 11  1  0
 18 20  1  0
 20 21  1  0
 20 22  2  0
 14 23  1  0
 12 24  1  0
 13 25  1  0
  4 26  1  6
 26 27  1  0
M  END
> <From> 
www.bindingDB.org

> <BindingDB Reactant_set_id>
50271393

> <Ligand InChI>
InChI=1S/C16H18Cl2N4O4S/c1-7-11(17)12(18)13(20-7)14(24)21-9-2-3-22(5-8(9)6-23)16-19-4-10(27-16)15(25)26/h4,8-9,20,23H,2-3,5-6H2,1H3,(H,21,24)(H,25,26)/t8-,9-/m1/s1

> <Ligand InChI Key>
KZGIPMALVAHUJA-RKDXNWHRSA-N

> <BindingDB MonomerID>
50047327

> <BindingDB Ligand Name>
CHEMBL3314536

> <Target Name Assigned by Curator or DataSource>
DNA Gyrase Subunit B

> <Target Source Organism According to Curator or DataSource>
Staphylococcus aureus

> <Ki (nM)>


> <IC50 (nM)>
 18

> <Kd (nM)>


> <EC50 (nM)>


> <kon (M-1-s-1)>


> <koff (s-1)>


> <pH>


> <Temp C>


> <Curation/DataSource>
ChEMBL

> <Article DOI>
10.1021/jm500462x

> <PMID>
24959892

> <PubChem AID>


> <Patent Number>


> <Authors>
Basarab, GS; Hill, PJ; Garner, CE; Hull, K; Green, O; Sherer, BA; Dangel, PB; Manchester, JI; Bist, S; Hauck, S; Zhou, F; Uria-Nickelsen, M; Illingworth, R; Alm, R; Rooney, M; Eakin, AE

> <Institution>
AstraZeneca

> <Link to Ligand in BindingDB>
http://www.bindingdb.org/bind/chemsearch/marvin/MolStructure.jsp?monomerid=50047327

> <Link to Ligand-Target Pair in BindingDB>
http://www.bindingdb.org/jsp/dbsearch/PrimarySearch_ki.jsp?energyterm=kJ/mole&tag=pol&polymerid=2626&target=DNA+Gyrase+Subunit+B&column=ki&startPg=0&Increment=50&submit=Search

> <Link to Ligand-Target Pair in BindingDB>
http://www.bindingdb.org/jsp/dbsearch/PrimarySearch_ki.jsp?energyterm=kJ/mole&tag=r21&monomerid=50047327&enzyme=DNA+Gyrase+Subunit+B&column=ki&startPg=0&Increment=50&submit=Search

> <Ligand HET ID in PDB>


> <PDB ID(s) for Ligand-Target Complex>


> <PubChem CID>
118707646

> <PubChem SID>
103978007

> <ChEBI ID of Ligand>


> <ChEMBL ID of Ligand>
CHEMBL33740

> <DrugBank ID of Ligand>


> <IUPHAR_GRAC ID of Ligand>


> <KEGG ID of Ligand>


> <ZINC ID of Ligand>
ZINC03787705

> <Number of Protein Chains in Target (>1 implies a multichain complex)>
1

> <BindingDB Target Chain Sequence>
MVTALSDVNNTDNYGAGQIQVLEGLEAVRKRPGMYIGSTSERGLHHLVWEIVDNSIDEALAGYANQIEVVIEKDNWIKVTDNGRGIPVDIQEKMGRPAVEVILTVLHAGGKFGGGGYKVSGGLHGVGSSVVNALSQDLEVYVHRNETIYHQAYKKGVPQFDLKEVGTTDKTGTVIRFKADGEIFTETTVYNYETLQQRIRELAFLNKGIQITLRDERDEENVREDSYHYEGGIKSYVELLNENKEPIHDEPIYIHQSKDDIEVEIAIQYNSGYATNLLTYANNIHTYEGGTHEDGFKRALTRVLNSYGLSSKIMKEEKDRLSGEDTREGMTAIISIKHGDPQFEGQTKTKLGNSEVRQVVDKLFSEHFERFLYENPQVARTVVEKGIMAARARVAAKKAREVTRRKSALDVASLPGKLADCSSKSPEECEIFLVEGDSAGGSTKSGRDSRTQAILPLRGKILNVEKARLDRILNNNEIRQMITAFGTGIGGDFDLAKARYHKIVIMTDADVDGAHIRTLLLTFFYRFMRPLIEAGYVYIAQPPLYKLTQGKQKYYVYNDRELDKLKSELNPTPKWSIARYKGLGEMNADQLWETTMNPEHRALLQVKLEDAIEADQTFEMLMGDVVENRRQFIEDNAVYANLDF

> <PDB ID(s) of Target Chain>


> <UniProt (SwissProt) Recommended Name of Target Chain>
DNA gyrase subunit B

> <UniProt (SwissProt) Entry Name of Target Chain>
GYRB_STAAU

> <UniProt (SwissProt) Primary ID of Target Chain>
P0A0K8

> <UniProt (SwissProt) Secondary ID(s) of Target Chain>
P20832

> <UniProt (SwissProt) Alternative ID(s) of Target Chain>


> <UniProt (TrEMBL) Submitted Name of Target Chain>


> <UniProt (TrEMBL) Entry Name of Target Chain>


> <UniProt (TrEMBL) Primary ID of Target Chain>


> <UniProt (TrEMBL) Secondary ID(s) of Target Chain>


> <UniProt (TrEMBL) Alternative ID(s) of Target Chain>


$$$$

  Mrv0541 11231413392D          

 47 51  0  0  0  0            999 V2000
   -0.3447    0.5596    0.0000 C   0  0  0  0  0  0  0  0  0  0  0  0
   -1.0707    0.9611    0.0000 C   0  0  1  0  0  0  0  0  0  0  0  0
   -1.7775    0.5356    0.0000 C   0  0  2  0  0  0  0  0  0  0  0  0
   -1.7646   -0.2933    0.0000 C   0  0  2  0  0  0  0  0  0  0  0  0
   -1.0386   -0.6949    0.0000 C   0  0  1  0  0  0  0  0  0  0  0  0
   -0.3256   -0.2675    0.0000 O   0  0  0  0  0  0  0  0  0  0  0  0
   -1.0243   -1.5197    0.0000 O   0  0  0  0  0  0  0  0  0  0  0  0
   -0.3046   -1.9310    0.0000 C   0  0  0  0  0  0  0  0  0  0  0  0
   -0.3054   -2.7555    0.0000 C   0  0  0  0  0  0  0  0  0  0  0  0
    0.4103   -1.5168    0.0000 C   0  0  0  0  0  0  0  0  0  0  0  0
    1.1247   -1.9344    0.0000 C   0  0  0  0  0  0  0  0  0  0  0  0
    1.1229   -2.7591    0.0000 C   0  0  0  0  0  0  0  0  0  0  0  0
    0.4077   -3.1707    0.0000 C   0  0  0  0  0  0  0  0  0  0  0  0
    0.4064   -3.9913    0.0000 O   0  0  0  0  0  0  0  0  0  0  0  0
    1.1188   -4.4067    0.0000 C   0  0  0  0  0  0  0  0  0  0  0  0
    1.8340   -3.9952    0.0000 C   0  0  0  0  0  0  0  0  0  0  0  0
    1.8370   -3.1683    0.0000 C   0  0  0  0  0  0  0  0  0  0  0  0
    2.5514   -2.7558    0.0000 O   0  0  0  0  0  0  0  0  0  0  0  0
    1.1164   -5.2317    0.0000 O   0  0  0  0  0  0  0  0  0  0  0  0
    2.5475   -4.4094    0.0000 N   0  0  0  0  0  0  0  0  0  0  0  0
    2.5454   -5.2344    0.0000 C   0  0  0  0  0  0  0  0  0  0  0  0
    1.8299   -5.6452    0.0000 O   0  0  0  0  0  0  0  0  0  0  0  0
    3.2588   -5.6487    0.0000 C   0  0  0  0  0  0  0  0  0  0  0  0
    3.2539   -6.4729    0.0000 C   0  0  0  0  0  0  0  0  0  0  0  0
    3.9665   -6.8870    0.0000 C   0  0  0  0  0  0  0  0  0  0  0  0
    4.6830   -6.4763    0.0000 C   0  0  0  0  0  0  0  0  0  0  0  0
    4.6823   -5.6470    0.0000 C   0  0  0  0  0  0  0  0  0  0  0  0
    3.9692   -5.2366    0.0000 C   0  0  0  0  0  0  0  0  0  0  0  0
    5.3970   -6.8897    0.0000 O   0  0  0  0  0  0  0  0  0  0  0  0
    5.3964   -5.2339    0.0000 C   0  0  0  0  0  0  0  0  0  0  0  0
    0.4828    0.5785    0.0000 C   0  0  0  0  0  0  0  0  0  0  0  0
   -0.3556    1.3827    0.0000 C   0  0  0  0  0  0  0  0  0  0  0  0
   -1.0858    1.7859    0.0000 O   0  0  0  0  0  0  0  0  0  0  0  0
   -0.3791    2.2115    0.0000 C   0  0  0  0  0  0  0  0  0  0  0  0
   -2.4988    0.9359    0.0000 O   0  0  0  0  0  0  0  0  0  0  0  0
   -2.5128    1.7608    0.0000 C   0  0  0  0  0  0  0  0  0  0  0  0
   -3.2339    2.1614    0.0000 C   0  0  0  0  0  0  0  0  0  0  0  0
   -1.8054    2.1854    0.0000 O   0  0  0  0  0  0  0  0  0  0  0  0
   -2.4719   -0.7179    0.0000 O   0  0  0  0  0  0  0  0  0  0  0  0
   -3.4697    2.9550    0.0000 C   0  0  0  0  0  0  0  0  0  0  0  0
   -4.2944    2.9781    0.0000 C   0  0  0  0  0  0  0  0  0  0  0  0
   -4.5711    2.2009    0.0000 C   0  0  0  0  0  0  0  0  0  0  0  0
   -3.9175    1.6975    0.0000 N   0  0  0  0  0  0  0  0  0  0  0  0
   -5.2891    1.7966    0.0000 C   0  0  0  0  0  0  0  0  0  0  0  0
   -1.0207   -3.1664    0.0000 C   0  0  0  0  0  0  0  0  0  0  0  0
    6.1113   -5.6456    0.0000 C   0  0  0  0  0  0  0  0  0  0  0  0
    6.8253   -5.2323    0.0000 C   0  0  0  0  0  0  0  0  0  0  0  0
 11 10  1  0  0  0  0
 21 23  1  0  0  0  0
 11 12  2  0  0  0  0
 23 24  2  0  0  0  0
  3  4  1  0  0  0  0
 24 25  1  0  0  0  0
 12 13  1  0  0  0  0
 25 26  2  0  0  0  0
  4  5  1  0  0  0  0
 26 27  1  0  0  0  0
  5  6  1  0  0  0  0
 27 28  2  0  0  0  0
 28 23  1  0  0  0  0
 26 29  1  0  0  0  0
  5  7  1  1  0  0  0
 27 30  1  0  0  0  0
  2  1  1  0  0  0  0
  1 31  1  0  0  0  0
  7  8  1  0  0  0  0
  1 32  1  0  0  0  0
 12 17  1  0  0  0  0
  2 33  1  1  0  0  0
 13 14  1  0  0  0  0
 33 34  1  0  0  0  0
 14 15  1  0  0  0  0
  3 35  1  6  0  0  0
 15 16  1  0  0  0  0
 35 36  1  0  0  0  0
 16 17  2  0  0  0  0
 36 37  1  0  0  0  0
  8  9  1  0  0  0  0
 36 38  2  0  0  0  0
 17 18  1  0  0  0  0
  4 39  1  6  0  0  0
 37 40  2  0  0  0  0
  1  6  1  0  0  0  0
 15 19  2  0  0  0  0
  3  2  1  0  0  0  0
 16 20  1  0  0  0  0
 40 41  1  0  0  0  0
 41 42  2  0  0  0  0
 42 43  1  0  0  0  0
 43 37  1  0  0  0  0
  8 10  2  0  0  0  0
 42 44  1  0  0  0  0
 20 21  1  0  0  0  0
  9 45  1  0  0  0  0
  9 13  2  0  0  0  0
 30 46  1  0  0  0  0
 21 22  2  0  0  0  0
 46 47  1  0  0  0  0
M  END
> <From> 
www.bindingDB.org

> <BindingDB Reactant_set_id>
50607707

> <Ligand InChI>
InChI=1S/C34H38N2O11/c1-7-8-18-15-19(10-13-22(18)37)30(40)36-24-25(38)20-11-14-23(17(3)27(20)45-32(24)42)44-33-26(39)28(29(43-6)34(4,5)47-33)46-31(41)21-12-9-16(2)35-21/h9-15,26,28-29,33,35,37-39H,7-8H2,1-6H3,(H,36,40)/t26-,28+,29-,33-/m1/s1

> <Ligand InChI Key>
BSULDEYEQDESSB-ZQZBKPNISA-N

> <BindingDB MonomerID>
50330315

> <BindingDB Ligand Name>
(3R,4S,5R,6R)-5-hydroxy-6-(4-hydroxy-3-(4-hydroxy-3-propylbenzamido)-8-methyl-2-oxo-2H-chromen-7-yloxy)-3-methoxy-2,2-dimethyltetrahydro-2H-pyran-4-yl 5-methyl-1H-pyrrole-2-carboxylate::CHEMBL1275843

> <Target Name Assigned by Curator or DataSource>
DNA Gyrase Subunit B

> <Target Source Organism According to Curator or DataSource>
Escherichia coli

> <Ki (nM)>


> <IC50 (nM)>
 19

> <Kd (nM)>


> <EC50 (nM)>


> <kon (M-1-s-1)>


> <koff (s-1)>


> <pH>


> <Temp C>


> <Curation/DataSource>
ChEMBL

> <Article DOI>
10.1128/AAC.01235-07

> <PMID>
18347114

> <PubChem AID>


> <Patent Number>


> <Authors>
Anderle, C; Stieger, M; Burrell, M; Reinelt, S; Maxwell, A; Page, M; Heide, L

> <Institution>
Universit&#228;t T&#252;bingen

> <Link to Ligand in BindingDB>
http://www.bindingdb.org/bind/chemsearch/marvin/MolStructure.jsp?monomerid=50330315

> <Link to Ligand-Target Pair in BindingDB>
http://www.bindingdb.org/jsp/dbsearch/PrimarySearch_ki.jsp?energyterm=kJ/mole&tag=pol&polymerid=2630&target=DNA+Gyrase+Subunit+B&column=ki&startPg=0&Increment=50&submit=Search

> <Link to Ligand-Target Pair in BindingDB>
http://www.bindingdb.org/jsp/dbsearch/PrimarySearch_ki.jsp?energyterm=kJ/mole&tag=r21&monomerid=50330315&enzyme=DNA+Gyrase+Subunit+B&column=ki&startPg=0&Increment=50&submit=Search

> <Ligand HET ID in PDB>


> <PDB ID(s) for Ligand-Target Complex>


> <PubChem CID>
54732409

> <PubChem SID>
123109430

> <ChEBI ID of Ligand>


> <ChEMBL ID of Ligand>
CHEMBL1275843

> <DrugBank ID of Ligand>


> <IUPHAR_GRAC ID of Ligand>


> <KEGG ID of Ligand>


> <ZINC ID of Ligand>
ZINC72136377

> <Number of Protein Chains in Target (>1 implies a multichain complex)>
1

> <BindingDB Target Chain Sequence>
MSNSYDSSSIKVLKGLDAVRKRPGMYIGDTDDGTGLHHMVFEVVDNAIDEALAGHCKEII
VTIHADNSVSVQDDGRGIPTGIHPEEGVSAAEVIMTVLHAGGKFDDNSYKVSGGLHGVGV
SVVNALSQKLELVIQREGKIHRQIYEHGVPQAPLAVTGETEKTGTMVRFWPSLETFTNVT
EFEYEILAKRLRELSFLNSGVSIRLRDKRDGKEDHFHYEGGIKAFVEYLNKNKTPIHPNI
FYFSTEKDGIGVEVALQWNDGFQENIYCFTNNIPQRDGGTHLAGFRAAMTRTLNAYMDKE
GYSKKAKVSATGDDAREGLIAVVSVKVPDPKFSSQTKDKLVSSEVKSAVEQQMNELLAEY
LLENPTDAKIVVGKIIDAARAREAARRAREMTRRKGALDLAGLPGKLADCQERDPALSEL
YLVEGDSAGGSAKQGRNRKNQAILPLKGKILNVEKARFDKMLSSQEVATLITALGCGIGR
DEYNPDKLRYHSIIIMTDADVDGSHIRTLLLTFFYRQMPEIVERGHVYIAQPPLYKVKKG
KQEQYIKDDEAMDQYQISIALDGATLHTNASAPALAGEALEKLVSEYNATQKMINRMERR
YPKAMLKELIYQPTLTEADLSDEQTVTRWVNALVSELNDKEQHGSQWKFDVHTNAEQNLF
EPIVRVRTHGVDTDYPLDHEFITGGEYRRICTLGEKLRGLLEEDAFIERGERRQPVASFE
QALDWLVKESRRGLSIQRYKGLGEMNPEQLWETTMDPESRRMLRVTVKDAIAADQLFTTL
MGDAVEPRRAFIEENALKAANIDI

> <PDB ID(s) of Target Chain>
1KZN,3G7E,3NUH,4DUH,4HYP,4KFG,4PRV,4PRX,4PU9,4WUB,4WUC,4WUD,4XTJ,4ZVI,5L3J,5MMN,5MMO,5MMP,5Z4H,5Z4O,5Z9B,5Z9E,5Z9F,5Z9L,5Z9M,5Z9N,5Z9Q,6ENG,6F86,6F8J,6F94,6F96

> <UniProt (SwissProt) Recommended Name of Target Chain>
DNA gyrase subunit B

> <UniProt (SwissProt) Entry Name of Target Chain>
GYRB_ECOLI

> <UniProt (SwissProt) Primary ID of Target Chain>
P0AES6

> <UniProt (SwissProt) Secondary ID(s) of Target Chain>
O08438,P06982,Q2M811

> <UniProt (SwissProt) Alternative ID(s) of Target Chain>


> <UniProt (TrEMBL) Submitted Name of Target Chain>


> <UniProt (TrEMBL) Entry Name of Target Chain>


> <UniProt (TrEMBL) Primary ID of Target Chain>


> <UniProt (TrEMBL) Secondary ID(s) of Target Chain>


> <UniProt (TrEMBL) Alternative ID(s) of Target Chain>


$$$$

  SciTegic12201612272D

 23 26  0  0  0  0            999 V2000
    0.2917   -0.7475    0.0000 C   0  0
    0.2917    0.7475    0.0000 C   0  0
   -1.0028    1.5132    0.0000 C   0  0
   -2.3155    0.7475    0.0000 C   0  0
   -2.3155   -0.7475    0.0000 C   0  0
   -1.0028   -1.5132    0.0000 N   0  0
    2.5889    0.0182    0.0000 N   0  0
    1.7138   -1.2033    0.0000 N   0  0
    1.7138    1.2033    0.0000 C   0  0
   -3.3560   -1.3452    0.0000 O   0  0
    3.6243    2.9682    0.0000 S   0  0
    3.7308    4.4645    0.0000 C   0  0
    2.3406    5.0280    0.0000 N   0  0
    1.3751    3.8801    0.0000 C   0  0
    2.1749    2.6315    0.0000 C   0  0
    6.3724    4.6552    0.0000 C   0  0
    5.0044    5.2582    0.0000 C   0  0
    4.8363    6.7505    0.0000 C   0  0
    6.0460    7.6374    0.0000 C   0  0
    7.4189    7.0332    0.0000 C   0  0
    7.5821    5.5421    0.0000 N   0  0
   -0.9971   -3.0138    0.0000 C   0  0
   -2.0337   -3.6184    0.0000 C   0  0
  1  2  2  0
  2  3  1  0
  3  4  2  0
  4  5  1  0
  5  6  1  0
  1  6  1  0
  7  8  1  0
  7  9  2  0
  1  8  1  0
  2  9  1  0
  5 10  2  0
 11 12  1  0
 12 13  2  0
 13 14  1  0
 14 15  2  0
 11 15  1  0
 16 17  1  0
 17 18  2  0
 18 19  1  0
 19 20  2  0
 20 21  1  0
 16 21  2  0
 12 17  1  0
  9 15  1  0
 22 23  1  0
  6 22  1  0
M  END
> <From> 
www.bindingDB.org

> <BindingDB Reactant_set_id>
50498699

> <Ligand InChI>
InChI=1S/C16H13N5OS/c1-2-21-13(22)6-5-11-14(19-20-15(11)21)12-9-18-16(23-12)10-4-3-7-17-8-10/h3-9H,2H2,1H3,(H,19,20)

> <Ligand InChI Key>
BGLANQCMTSXFSJ-UHFFFAOYSA-N

> <BindingDB MonomerID>
50173878

> <BindingDB Ligand Name>
CHEMBL3809316

> <Target Name Assigned by Curator or DataSource>
DNA gyrase

> <Target Source Organism According to Curator or DataSource>
Staphylococcus aureus

> <Ki (nM)>


> <IC50 (nM)>
 20

> <Kd (nM)>


> <EC50 (nM)>


> <kon (M-1-s-1)>


> <koff (s-1)>


> <pH>


> <Temp C>


> <Curation/DataSource>
ChEMBL

> <Article DOI>
10.1021/acsmedchemlett.5b00368

> <PMID>
27096044

> <PubChem AID>


> <Patent Number>


> <Authors>
Cross, JB; Zhang, J; Yang, Q; Mesleh, MF; Romero, JA; Wang, B; Bevan, D; Poutsiaka, KM; Epie, F; Moy, T; Daniel, A; Shotwell, J; Chamberlain, B; Carter, N; Andersen, O; Barker, J; Ryan, MD; Metcalf, CA; Silverman, J; Nguyen, K; Lippa, B; Dolle, RE

> <Institution>
Cubist Pharmaceuticals, Inc.

> <Link to Ligand in BindingDB>
http://www.bindingdb.org/bind/chemsearch/marvin/MolStructure.jsp?monomerid=50173878

> <Link to Ligand-Target Pair in BindingDB>
http://www.bindingdb.org/jsp/dbsearch/PrimarySearch_ki.jsp?energyterm=kJ/mole&tag=pol&polymerid=2626&target=DNA+gyrase&column=ki&startPg=0&Increment=50&submit=Search

> <Link to Ligand-Target Pair in BindingDB>
http://www.bindingdb.org/jsp/dbsearch/PrimarySearch_ki.jsp?energyterm=kJ/mole&tag=r21&monomerid=50173878&enzyme=DNA+gyrase&column=ki&startPg=0&Increment=50&submit=Search

> <Ligand HET ID in PDB>


> <PDB ID(s) for Ligand-Target Complex>


> <PubChem CID>
127045548

> <PubChem SID>
346548897

> <ChEBI ID of Ligand>


> <ChEMBL ID of Ligand>


> <DrugBank ID of Ligand>


> <IUPHAR_GRAC ID of Ligand>


> <KEGG ID of Ligand>


> <ZINC ID of Ligand>


> <Number of Protein Chains in Target (>1 implies a multichain complex)>
1

> <BindingDB Target Chain Sequence>
MVTALSDVNNTDNYGAGQIQVLEGLEAVRKRPGMYIGSTSERGLHHLVWEIVDNSIDEALAGYANQIEVVIEKDNWIKVTDNGRGIPVDIQEKMGRPAVEVILTVLHAGGKFGGGGYKVSGGLHGVGSSVVNALSQDLEVYVHRNETIYHQAYKKGVPQFDLKEVGTTDKTGTVIRFKADGEIFTETTVYNYETLQQRIRELAFLNKGIQITLRDERDEENVREDSYHYEGGIKSYVELLNENKEPIHDEPIYIHQSKDDIEVEIAIQYNSGYATNLLTYANNIHTYEGGTHEDGFKRALTRVLNSYGLSSKIMKEEKDRLSGEDTREGMTAIISIKHGDPQFEGQTKTKLGNSEVRQVVDKLFSEHFERFLYENPQVARTVVEKGIMAARARVAAKKAREVTRRKSALDVASLPGKLADCSSKSPEECEIFLVEGDSAGGSTKSGRDSRTQAILPLRGKILNVEKARLDRILNNNEIRQMITAFGTGIGGDFDLAKARYHKIVIMTDADVDGAHIRTLLLTFFYRFMRPLIEAGYVYIAQPPLYKLTQGKQKYYVYNDRELDKLKSELNPTPKWSIARYKGLGEMNADQLWETTMNPEHRALLQVKLEDAIEADQTFEMLMGDVVENRRQFIEDNAVYANLDF

> <PDB ID(s) of Target Chain>


> <UniProt (SwissProt) Recommended Name of Target Chain>
DNA gyrase subunit B

> <UniProt (SwissProt) Entry Name of Target Chain>
GYRB_STAAU

> <UniProt (SwissProt) Primary ID of Target Chain>
P0A0K8

> <UniProt (SwissProt) Secondary ID(s) of Target Chain>
P20832

> <UniProt (SwissProt) Alternative ID(s) of Target Chain>


> <UniProt (TrEMBL) Submitted Name of Target Chain>


> <UniProt (TrEMBL) Entry Name of Target Chain>


> <UniProt (TrEMBL) Primary ID of Target Chain>


> <UniProt (TrEMBL) Secondary ID(s) of Target Chain>


> <UniProt (TrEMBL) Alternative ID(s) of Target Chain>


$$$$

  Mrv0541 11231413392D          

 45 49  0  0  0  0            999 V2000
   12.6166  -13.7630    0.0000 C   0  0  0  0  0  0  0  0  0  0  0  0
   11.8907  -13.3615    0.0000 C   0  0  1  0  0  0  0  0  0  0  0  0
   11.1839  -13.7870    0.0000 C   0  0  2  0  0  0  0  0  0  0  0  0
   11.1969  -14.6159    0.0000 C   0  0  2  0  0  0  0  0  0  0  0  0
   11.9227  -15.0174    0.0000 C   0  0  1  0  0  0  0  0  0  0  0  0
   12.6357  -14.5901    0.0000 O   0  0  0  0  0  0  0  0  0  0  0  0
   11.9370  -15.8423    0.0000 O   0  0  0  0  0  0  0  0  0  0  0  0
   12.6567  -16.2536    0.0000 C   0  0  0  0  0  0  0  0  0  0  0  0
   12.6561  -17.0781    0.0000 C   0  0  0  0  0  0  0  0  0  0  0  0
   13.3716  -15.8393    0.0000 C   0  0  0  0  0  0  0  0  0  0  0  0
   14.0861  -16.2570    0.0000 C   0  0  0  0  0  0  0  0  0  0  0  0
   14.0843  -17.0817    0.0000 C   0  0  0  0  0  0  0  0  0  0  0  0
   13.3690  -17.4932    0.0000 C   0  0  0  0  0  0  0  0  0  0  0  0
   13.3678  -18.3139    0.0000 O   0  0  0  0  0  0  0  0  0  0  0  0
   14.0801  -18.7293    0.0000 C   0  0  0  0  0  0  0  0  0  0  0  0
   14.7954  -18.3177    0.0000 C   0  0  0  0  0  0  0  0  0  0  0  0
   14.7983  -17.4908    0.0000 C   0  0  0  0  0  0  0  0  0  0  0  0
   15.5128  -17.0784    0.0000 O   0  0  0  0  0  0  0  0  0  0  0  0
   14.0778  -19.5541    0.0000 O   0  0  0  0  0  0  0  0  0  0  0  0
   15.5088  -18.7319    0.0000 N   0  0  0  0  0  0  0  0  0  0  0  0
   15.5068  -19.5569    0.0000 C   0  0  0  0  0  0  0  0  0  0  0  0
   14.7912  -19.9676    0.0000 O   0  0  0  0  0  0  0  0  0  0  0  0
   16.2201  -19.9712    0.0000 C   0  0  0  0  0  0  0  0  0  0  0  0
   16.2152  -20.7953    0.0000 C   0  0  0  0  0  0  0  0  0  0  0  0
   16.9278  -21.2096    0.0000 C   0  0  0  0  0  0  0  0  0  0  0  0
   17.6442  -20.7988    0.0000 C   0  0  0  0  0  0  0  0  0  0  0  0
   17.6437  -19.9696    0.0000 C   0  0  0  0  0  0  0  0  0  0  0  0
   16.9305  -19.5591    0.0000 C   0  0  0  0  0  0  0  0  0  0  0  0
   13.4441  -13.7442    0.0000 C   0  0  0  0  0  0  0  0  0  0  0  0
   12.6057  -12.9400    0.0000 C   0  0  0  0  0  0  0  0  0  0  0  0
   11.8755  -12.5366    0.0000 O   0  0  0  0  0  0  0  0  0  0  0  0
   12.5824  -12.1112    0.0000 C   0  0  0  0  0  0  0  0  0  0  0  0
   10.4626  -13.3867    0.0000 O   0  0  0  0  0  0  0  0  0  0  0  0
   10.4485  -12.5618    0.0000 C   0  0  0  0  0  0  0  0  0  0  0  0
    9.7276  -12.1612    0.0000 C   0  0  0  0  0  0  0  0  0  0  0  0
   11.1559  -12.1373    0.0000 O   0  0  0  0  0  0  0  0  0  0  0  0
   10.4895  -15.0404    0.0000 O   0  0  0  0  0  0  0  0  0  0  0  0
    9.4918  -11.3677    0.0000 C   0  0  0  0  0  0  0  0  0  0  0  0
    8.6671  -11.3446    0.0000 C   0  0  0  0  0  0  0  0  0  0  0  0
    8.3903  -12.1218    0.0000 C   0  0  0  0  0  0  0  0  0  0  0  0
    9.0440  -12.6251    0.0000 N   0  0  0  0  0  0  0  0  0  0  0  0
    7.6723  -12.5260    0.0000 C   0  0  0  0  0  0  0  0  0  0  0  0
   11.9407  -17.4889    0.0000 Cl  0  0  0  0  0  0  0  0  0  0  0  0
   18.3582  -21.2121    0.0000 S   0  0  0  0  0  0  0  0  0  0  0  0
   18.3573  -22.0371    0.0000 C   0  0  0  0  0  0  0  0  0  0  0  0
  9 13  2  0  0  0  0
 21 22  2  0  0  0  0
 11 10  1  0  0  0  0
 21 23  1  0  0  0  0
 11 12  2  0  0  0  0
 23 24  2  0  0  0  0
  3  4  1  0  0  0  0
 24 25  1  0  0  0  0
 12 13  1  0  0  0  0
 25 26  2  0  0  0  0
  4  5  1  0  0  0  0
 26 27  1  0  0  0  0
  5  6  1  0  0  0  0
 27 28  2  0  0  0  0
 28 23  1  0  0  0  0
  1 29  1  0  0  0  0
  5  7  1  1  0  0  0
  1 30  1  0  0  0  0
  2  1  1  0  0  0  0
  2 31  1  1  0  0  0
  7  8  1  0  0  0  0
 31 32  1  0  0  0  0
 12 17  1  0  0  0  0
  3 33  1  6  0  0  0
 13 14  1  0  0  0  0
 33 34  1  0  0  0  0
 14 15  1  0  0  0  0
 34 35  1  0  0  0  0
 15 16  1  0  0  0  0
 34 36  2  0  0  0  0
 16 17  2  0  0  0  0
  4 37  1  6  0  0  0
 35 38  2  0  0  0  0
  8  9  1  0  0  0  0
 17 18  1  0  0  0  0
  1  6  1  0  0  0  0
 15 19  2  0  0  0  0
 38 39  1  0  0  0  0
 39 40  2  0  0  0  0
 40 41  1  0  0  0  0
 41 35  1  0  0  0  0
  3  2  1  0  0  0  0
 40 42  1  0  0  0  0
 16 20  1  0  0  0  0
  9 43  1  0  0  0  0
  8 10  2  0  0  0  0
 26 44  1  0  0  0  0
 20 21  1  0  0  0  0
 44 45  1  0  0  0  0
M  END
> <From> 
www.bindingDB.org

> <BindingDB Reactant_set_id>
50607706

> <Ligand InChI>
InChI=1S/C31H31ClN2O10S/c1-14-6-12-18(33-14)28(38)43-25-23(36)30(44-31(2,3)26(25)40-4)41-19-13-11-17-22(35)21(29(39)42-24(17)20(19)32)34-27(37)15-7-9-16(45-5)10-8-15/h6-13,23,25-26,30,33,35-36H,1-5H3,(H,34,37)/t23-,25+,26-,30-/m1/s1

> <Ligand InChI Key>
XOMHJPBHEZEXNM-CPPKFOPJSA-N

> <BindingDB MonomerID>
50330314

> <BindingDB Ligand Name>
(3R,4S,5R,6S)-6-(8-chloro-4-hydroxy-3-(4-(methylthio)benzamido)-2-oxo-2H-chromen-7-yloxy)-5-hydroxy-3-methoxy-2,2-dimethyltetrahydro-2H-pyran-4-yl 5-methyl-1H-pyrrole-2-carboxylate::CHEMBL1275844

> <Target Name Assigned by Curator or DataSource>
DNA Gyrase Subunit B

> <Target Source Organism According to Curator or DataSource>
Escherichia coli

> <Ki (nM)>


> <IC50 (nM)>
 20

> <Kd (nM)>


> <EC50 (nM)>


> <kon (M-1-s-1)>


> <koff (s-1)>


> <pH>


> <Temp C>


> <Curation/DataSource>
ChEMBL

> <Article DOI>
10.1128/AAC.01235-07

> <PMID>
18347114

> <PubChem AID>


> <Patent Number>


> <Authors>
Anderle, C; Stieger, M; Burrell, M; Reinelt, S; Maxwell, A; Page, M; Heide, L

> <Institution>
Universit&#228;t T&#252;bingen

> <Link to Ligand in BindingDB>
http://www.bindingdb.org/bind/chemsearch/marvin/MolStructure.jsp?monomerid=50330314

> <Link to Ligand-Target Pair in BindingDB>
http://www.bindingdb.org/jsp/dbsearch/PrimarySearch_ki.jsp?energyterm=kJ/mole&tag=pol&polymerid=2630&target=DNA+Gyrase+Subunit+B&column=ki&startPg=0&Increment=50&submit=Search

> <Link to Ligand-Target Pair in BindingDB>
http://www.bindingdb.org/jsp/dbsearch/PrimarySearch_ki.jsp?energyterm=kJ/mole&tag=r21&monomerid=50330314&enzyme=DNA+Gyrase+Subunit+B&column=ki&startPg=0&Increment=50&submit=Search

> <Ligand HET ID in PDB>


> <PDB ID(s) for Ligand-Target Complex>


> <PubChem CID>
54729450

> <PubChem SID>
123109429

> <ChEBI ID of Ligand>


> <ChEMBL ID of Ligand>
CHEMBL1275844

> <DrugBank ID of Ligand>


> <IUPHAR_GRAC ID of Ligand>


> <KEGG ID of Ligand>


> <ZINC ID of Ligand>
ZINC72136378

> <Number of Protein Chains in Target (>1 implies a multichain complex)>
1

> <BindingDB Target Chain Sequence>
MSNSYDSSSIKVLKGLDAVRKRPGMYIGDTDDGTGLHHMVFEVVDNAIDEALAGHCKEII
VTIHADNSVSVQDDGRGIPTGIHPEEGVSAAEVIMTVLHAGGKFDDNSYKVSGGLHGVGV
SVVNALSQKLELVIQREGKIHRQIYEHGVPQAPLAVTGETEKTGTMVRFWPSLETFTNVT
EFEYEILAKRLRELSFLNSGVSIRLRDKRDGKEDHFHYEGGIKAFVEYLNKNKTPIHPNI
FYFSTEKDGIGVEVALQWNDGFQENIYCFTNNIPQRDGGTHLAGFRAAMTRTLNAYMDKE
GYSKKAKVSATGDDAREGLIAVVSVKVPDPKFSSQTKDKLVSSEVKSAVEQQMNELLAEY
LLENPTDAKIVVGKIIDAARAREAARRAREMTRRKGALDLAGLPGKLADCQERDPALSEL
YLVEGDSAGGSAKQGRNRKNQAILPLKGKILNVEKARFDKMLSSQEVATLITALGCGIGR
DEYNPDKLRYHSIIIMTDADVDGSHIRTLLLTFFYRQMPEIVERGHVYIAQPPLYKVKKG
KQEQYIKDDEAMDQYQISIALDGATLHTNASAPALAGEALEKLVSEYNATQKMINRMERR
YPKAMLKELIYQPTLTEADLSDEQTVTRWVNALVSELNDKEQHGSQWKFDVHTNAEQNLF
EPIVRVRTHGVDTDYPLDHEFITGGEYRRICTLGEKLRGLLEEDAFIERGERRQPVASFE
QALDWLVKESRRGLSIQRYKGLGEMNPEQLWETTMDPESRRMLRVTVKDAIAADQLFTTL
MGDAVEPRRAFIEENALKAANIDI

> <PDB ID(s) of Target Chain>
1KZN,3G7E,3NUH,4DUH,4HYP,4KFG,4PRV,4PRX,4PU9,4WUB,4WUC,4WUD,4XTJ,4ZVI,5L3J,5MMN,5MMO,5MMP,5Z4H,5Z4O,5Z9B,5Z9E,5Z9F,5Z9L,5Z9M,5Z9N,5Z9Q,6ENG,6F86,6F8J,6F94,6F96

> <UniProt (SwissProt) Recommended Name of Target Chain>
DNA gyrase subunit B

> <UniProt (SwissProt) Entry Name of Target Chain>
GYRB_ECOLI

> <UniProt (SwissProt) Primary ID of Target Chain>
P0AES6

> <UniProt (SwissProt) Secondary ID(s) of Target Chain>
O08438,P06982,Q2M811

> <UniProt (SwissProt) Alternative ID(s) of Target Chain>


> <UniProt (TrEMBL) Submitted Name of Target Chain>


> <UniProt (TrEMBL) Entry Name of Target Chain>


> <UniProt (TrEMBL) Primary ID of Target Chain>


> <UniProt (TrEMBL) Secondary ID(s) of Target Chain>


> <UniProt (TrEMBL) Alternative ID(s) of Target Chain>


$$$$

  Mrv0541 11231422262D          

 25 27  0  0  0  0            999 V2000
   -4.2205   -8.5825    0.0000 N   0  0  0  0  0  0  0  0  0  0  0  0
   -4.8937   -8.0958    0.0000 C   0  0  0  0  0  0  0  0  0  0  0  0
   -4.6370   -7.3076    0.0000 C   0  0  0  0  0  0  0  0  0  0  0  0
   -3.8080   -7.3076    0.0000 C   0  0  0  0  0  0  0  0  0  0  0  0
   -3.5514   -8.0963    0.0000 C   0  0  0  0  0  0  0  0  0  0  0  0
   -5.6780   -8.3514    0.0000 C   0  0  0  0  0  0  0  0  0  0  0  0
   -2.8346   -8.5046    0.0000 C   0  0  0  0  0  0  0  0  0  0  0  0
   -2.8298   -9.3295    0.0000 O   0  0  0  0  0  0  0  0  0  0  0  0
   -2.1227   -8.0879    0.0000 N   0  0  0  0  0  0  0  0  0  0  0  0
   -1.4059   -8.4962    0.0000 C   0  0  0  0  0  0  0  0  0  0  0  0
   -1.4047   -9.3232    0.0000 C   0  0  0  0  0  0  0  0  0  0  0  0
   -0.6920   -9.7314    0.0000 C   0  0  0  0  0  0  0  0  0  0  0  0
    0.0224   -9.3183    0.0000 N   0  0  0  0  0  0  0  0  0  0  0  0
    0.0196   -8.4924    0.0000 C   0  0  0  0  0  0  0  0  0  0  0  0
   -0.6977   -8.0796    0.0000 C   0  0  0  0  0  0  0  0  0  0  0  0
    0.7379   -9.7291    0.0000 C   0  0  0  0  0  0  0  0  0  0  0  0
   -5.1217   -6.6400    0.0000 Cl  0  0  0  0  0  0  0  0  0  0  0  0
   -3.3233   -6.6401    0.0000 Cl  0  0  0  0  0  0  0  0  0  0  0  0
    1.0005  -10.5108    0.0000 S   0  0  0  0  0  0  0  0  0  0  0  0
    1.8253  -10.5038    0.0000 C   0  0  0  0  0  0  0  0  0  0  0  0
    2.0736   -9.7169    0.0000 C   0  0  0  0  0  0  0  0  0  0  0  0
    1.4020   -9.2380    0.0000 N   0  0  0  0  0  0  0  0  0  0  0  0
    2.2346  -11.2200    0.0000 C   0  0  0  0  0  0  0  0  0  0  0  0
    1.8189  -11.9325    0.0000 O   0  0  0  0  0  0  0  0  0  0  0  0
    3.0595  -11.2237    0.0000 O   0  0  0  0  0  0  0  0  0  0  0  0
  5  7  1  0  0  0  0
 10 15  1  0  0  0  0
 11 12  1  0  0  0  0
 12 13  1  0  0  0  0
 13 14  1  0  0  0  0
 14 15  1  0  0  0  0
  1  2  1  0  0  0  0
 13 16  1  0  0  0  0
  7  8  2  0  0  0  0
  3 17  1  0  0  0  0
  3  4  1  0  0  0  0
  4 18  1  0  0  0  0
 16 19  1  0  0  0  0
  7  9  1  0  0  0  0
  4  5  2  0  0  0  0
  9 10  1  0  0  0  0
 10 11  1  0  0  0  0
 19 20  1  0  0  0  0
 20 21  2  0  0  0  0
 21 22  1  0  0  0  0
 22 16  2  0  0  0  0
  5  1  1  0  0  0  0
 20 23  1  0  0  0  0
  2  3  2  0  0  0  0
 23 24  2  0  0  0  0
  2  6  1  0  0  0  0
 23 25  1  0  0  0  0
M  END
> <From> 
www.bindingDB.org

> <BindingDB Reactant_set_id>
50705126

> <Ligand InChI>
InChI=1S/C15H16Cl2N4O3S/c1-7-10(16)11(17)12(19-7)13(22)20-8-2-4-21(5-3-8)15-18-6-9(25-15)14(23)24/h6,8,19H,2-5H2,1H3,(H,20,22)(H,23,24)

> <Ligand InChI Key>
DCKPCHMCUFLQER-UHFFFAOYSA-N

> <BindingDB MonomerID>
50358848

> <BindingDB Ligand Name>
CHEMBL1923433

> <Target Name Assigned by Curator or DataSource>
DNA Gyrase Subunit B

> <Target Source Organism According to Curator or DataSource>
Staphylococcus aureus

> <Ki (nM)>


> <IC50 (nM)>
 20

> <Kd (nM)>


> <EC50 (nM)>


> <kon (M-1-s-1)>


> <koff (s-1)>


> <pH>


> <Temp C>


> <Curation/DataSource>
ChEMBL

> <Article DOI>
10.1016/j.bmcl.2011.10.010

> <PMID>
22041057

> <PubChem AID>


> <Patent Number>


> <Authors>
Sherer, BA; Hull, K; Green, O; Basarab, G; Hauck, S; Hill, P; Loch, JT; Mullen, G; Bist, S; Bryant, J; Boriack-Sjodin, A; Read, J; DeGrace, N; Uria-Nickelsen, M; Illingworth, RN; Eakin, AE

> <Institution>
AstraZeneca R&amp;D Boston

> <Link to Ligand in BindingDB>
http://www.bindingdb.org/bind/chemsearch/marvin/MolStructure.jsp?monomerid=50358848

> <Link to Ligand-Target Pair in BindingDB>
http://www.bindingdb.org/jsp/dbsearch/PrimarySearch_ki.jsp?energyterm=kJ/mole&tag=pol&polymerid=2626&target=DNA+Gyrase+Subunit+B&column=ki&startPg=0&Increment=50&submit=Search

> <Link to Ligand-Target Pair in BindingDB>
http://www.bindingdb.org/jsp/dbsearch/PrimarySearch_ki.jsp?energyterm=kJ/mole&tag=r21&monomerid=50358848&enzyme=DNA+Gyrase+Subunit+B&column=ki&startPg=0&Increment=50&submit=Search

> <Ligand HET ID in PDB>


> <PDB ID(s) for Ligand-Target Complex>


> <PubChem CID>
11463807

> <PubChem SID>
136962872

> <ChEBI ID of Ligand>


> <ChEMBL ID of Ligand>
CHEMBL1923433

> <DrugBank ID of Ligand>


> <IUPHAR_GRAC ID of Ligand>


> <KEGG ID of Ligand>


> <ZINC ID of Ligand>
ZINC34576038

> <Number of Protein Chains in Target (>1 implies a multichain complex)>
1

> <BindingDB Target Chain Sequence>
MVTALSDVNNTDNYGAGQIQVLEGLEAVRKRPGMYIGSTSERGLHHLVWEIVDNSIDEALAGYANQIEVVIEKDNWIKVTDNGRGIPVDIQEKMGRPAVEVILTVLHAGGKFGGGGYKVSGGLHGVGSSVVNALSQDLEVYVHRNETIYHQAYKKGVPQFDLKEVGTTDKTGTVIRFKADGEIFTETTVYNYETLQQRIRELAFLNKGIQITLRDERDEENVREDSYHYEGGIKSYVELLNENKEPIHDEPIYIHQSKDDIEVEIAIQYNSGYATNLLTYANNIHTYEGGTHEDGFKRALTRVLNSYGLSSKIMKEEKDRLSGEDTREGMTAIISIKHGDPQFEGQTKTKLGNSEVRQVVDKLFSEHFERFLYENPQVARTVVEKGIMAARARVAAKKAREVTRRKSALDVASLPGKLADCSSKSPEECEIFLVEGDSAGGSTKSGRDSRTQAILPLRGKILNVEKARLDRILNNNEIRQMITAFGTGIGGDFDLAKARYHKIVIMTDADVDGAHIRTLLLTFFYRFMRPLIEAGYVYIAQPPLYKLTQGKQKYYVYNDRELDKLKSELNPTPKWSIARYKGLGEMNADQLWETTMNPEHRALLQVKLEDAIEADQTFEMLMGDVVENRRQFIEDNAVYANLDF

> <PDB ID(s) of Target Chain>


> <UniProt (SwissProt) Recommended Name of Target Chain>
DNA gyrase subunit B

> <UniProt (SwissProt) Entry Name of Target Chain>
GYRB_STAAU

> <UniProt (SwissProt) Primary ID of Target Chain>
P0A0K8

> <UniProt (SwissProt) Secondary ID(s) of Target Chain>
P20832

> <UniProt (SwissProt) Alternative ID(s) of Target Chain>


> <UniProt (TrEMBL) Submitted Name of Target Chain>


> <UniProt (TrEMBL) Entry Name of Target Chain>


> <UniProt (TrEMBL) Primary ID of Target Chain>


> <UniProt (TrEMBL) Secondary ID(s) of Target Chain>


> <UniProt (TrEMBL) Alternative ID(s) of Target Chain>


$$$$

  SciTegic12091614222D

 34 38  0  0  0  0            999 V2000
    7.5821    5.5422    0.0000 C   0  0
    6.3724    4.6552    0.0000 C   0  0
    5.0044    5.2582    0.0000 C   0  0
    4.8363    6.7505    0.0000 C   0  0
    6.0460    7.6374    0.0000 N   0  0
    7.4189    7.0332    0.0000 C   0  0
    3.6243    2.9682    0.0000 S   0  0
    3.7308    4.4645    0.0000 C   0  0
    2.3406    5.0280    0.0000 N   0  0
    1.3751    3.8801    0.0000 C   0  0
    2.1749    2.6315    0.0000 C   0  0
    1.7138   -1.2033    0.0000 N   0  0
    2.5889    0.0182    0.0000 N   0  0
    1.7138    1.2033    0.0000 C   0  0
    0.2917    0.7475    0.0000 C   0  0
   -1.0028    1.5132    0.0000 C   0  0
   -2.3155    0.7475    0.0000 C   0  0
   -2.3155   -0.7475    0.0000 C   0  0
   -1.0028   -1.5132    0.0000 C   0  0
    0.2917   -0.7475    0.0000 C   0  0
   -0.9971   -3.0138    0.0000 C   0  0
   -2.2935   -3.7700    0.0000 C   0  0
   -2.2889   -4.9699    0.0000 C   0  0
    8.6311    7.9182    0.0000 C   0  0
   10.0039    7.3117    0.0000 N   0  0
    8.5026    9.1113    0.0000 O   0  0
   11.2161    8.1966    0.0000 C   0  0
   12.5890    7.5901    0.0000 C   0  0
   13.8012    8.4750    0.0000 N   0  0
   15.1741    7.8709    0.0000 C   0  0
   16.3839    8.7578    0.0000 C   0  0
   16.2207   10.2489    0.0000 C   0  0
   14.8477   10.8531    0.0000 C   0  0
   13.6380    9.9662    0.0000 C   0  0
  1  2  1  0
  2  3  2  0
  3  4  1  0
  4  5  2  0
  5  6  1  0
  1  6  2  0
  7  8  1  0
  8  9  2  0
  9 10  1  0
 10 11  2  0
  7 11  1  0
 12 13  1  0
 13 14  2  0
 14 15  1  0
 15 16  1  0
 16 17  2  0
 17 18  1  0
 18 19  2  0
 19 20  1  0
 12 20  1  0
 15 20  2  0
 21 22  1  0
 22 23  1  0
 19 21  1  0
 11 14  1  0
  3  8  1  0
  6 24  1  0
 24 25  1  0
 24 26  2  0
 25 27  1  0
 27 28  1  0
 28 29  1  0
 29 30  1  0
 29 34  1  0
 30 31  1  0
 31 32  1  0
 32 33  1  0
 33 34  1  0
M  END
> <From> 
www.bindingDB.org

> <BindingDB Reactant_set_id>
50445676

> <Ligand InChI>
InChI=1S/C26H30N6OS/c1-2-7-18-8-6-9-20-23(18)30-31-24(20)22-17-29-26(34-22)19-10-11-21(28-16-19)25(33)27-12-15-32-13-4-3-5-14-32/h6,8-11,16-17H,2-5,7,12-15H2,1H3,(H,27,33)(H,30,31)

> <Ligand InChI Key>
FSHYFKNMIPAWGN-UHFFFAOYSA-N

> <BindingDB MonomerID>
50135111

> <BindingDB Ligand Name>
CHEMBL3739684

> <Target Name Assigned by Curator or DataSource>
DNA gyrase

> <Target Source Organism According to Curator or DataSource>
Staphylococcus aureus

> <Ki (nM)>


> <IC50 (nM)>
 20

> <Kd (nM)>


> <EC50 (nM)>


> <kon (M-1-s-1)>


> <koff (s-1)>


> <pH>


> <Temp C>


> <Curation/DataSource>
ChEMBL

> <Article DOI>
10.1021/acsmedchemlett.5b00266

> <PMID>
26487916

> <PubChem AID>


> <Patent Number>


> <Authors>
Zhang, J; Yang, Q; Romero, JA; Cross, J; Wang, B; Poutsiaka, KM; Epie, F; Bevan, D; Wu, Y; Moy, T; Daniel, A; Chamberlain, B; Carter, N; Shotwell, J; Arya, A; Kumar, V; Silverman, J; Nguyen, K; Metcalf, CA; Ryan, D; Lippa, B; Dolle, RE

> <Institution>
Cubist Pharmaceuticals Inc.

> <Link to Ligand in BindingDB>
http://www.bindingdb.org/bind/chemsearch/marvin/MolStructure.jsp?monomerid=50135111

> <Link to Ligand-Target Pair in BindingDB>
http://www.bindingdb.org/jsp/dbsearch/PrimarySearch_ki.jsp?energyterm=kJ/mole&tag=pol&polymerid=2626&target=DNA+gyrase&column=ki&startPg=0&Increment=50&submit=Search

> <Link to Ligand-Target Pair in BindingDB>
http://www.bindingdb.org/jsp/dbsearch/PrimarySearch_ki.jsp?energyterm=kJ/mole&tag=r21&monomerid=50135111&enzyme=DNA+gyrase&column=ki&startPg=0&Increment=50&submit=Search

> <Ligand HET ID in PDB>


> <PDB ID(s) for Ligand-Target Complex>


> <PubChem CID>
127038828

> <PubChem SID>
336951724

> <ChEBI ID of Ligand>


> <ChEMBL ID of Ligand>


> <DrugBank ID of Ligand>


> <IUPHAR_GRAC ID of Ligand>


> <KEGG ID of Ligand>


> <ZINC ID of Ligand>


> <Number of Protein Chains in Target (>1 implies a multichain complex)>
1

> <BindingDB Target Chain Sequence>
MVTALSDVNNTDNYGAGQIQVLEGLEAVRKRPGMYIGSTSERGLHHLVWEIVDNSIDEALAGYANQIEVVIEKDNWIKVTDNGRGIPVDIQEKMGRPAVEVILTVLHAGGKFGGGGYKVSGGLHGVGSSVVNALSQDLEVYVHRNETIYHQAYKKGVPQFDLKEVGTTDKTGTVIRFKADGEIFTETTVYNYETLQQRIRELAFLNKGIQITLRDERDEENVREDSYHYEGGIKSYVELLNENKEPIHDEPIYIHQSKDDIEVEIAIQYNSGYATNLLTYANNIHTYEGGTHEDGFKRALTRVLNSYGLSSKIMKEEKDRLSGEDTREGMTAIISIKHGDPQFEGQTKTKLGNSEVRQVVDKLFSEHFERFLYENPQVARTVVEKGIMAARARVAAKKAREVTRRKSALDVASLPGKLADCSSKSPEECEIFLVEGDSAGGSTKSGRDSRTQAILPLRGKILNVEKARLDRILNNNEIRQMITAFGTGIGGDFDLAKARYHKIVIMTDADVDGAHIRTLLLTFFYRFMRPLIEAGYVYIAQPPLYKLTQGKQKYYVYNDRELDKLKSELNPTPKWSIARYKGLGEMNADQLWETTMNPEHRALLQVKLEDAIEADQTFEMLMGDVVENRRQFIEDNAVYANLDF

> <PDB ID(s) of Target Chain>


> <UniProt (SwissProt) Recommended Name of Target Chain>
DNA gyrase subunit B

> <UniProt (SwissProt) Entry Name of Target Chain>
GYRB_STAAU

> <UniProt (SwissProt) Primary ID of Target Chain>
P0A0K8

> <UniProt (SwissProt) Secondary ID(s) of Target Chain>
P20832

> <UniProt (SwissProt) Alternative ID(s) of Target Chain>


> <UniProt (TrEMBL) Submitted Name of Target Chain>


> <UniProt (TrEMBL) Entry Name of Target Chain>


> <UniProt (TrEMBL) Primary ID of Target Chain>


> <UniProt (TrEMBL) Secondary ID(s) of Target Chain>


> <UniProt (TrEMBL) Alternative ID(s) of Target Chain>


$$$$

  Mrv0541 11241420052D          

 28 31  0  0  0  0            999 V2000
   23.2990  -28.9173    0.0000 C   0  0  0  0  0  0  0  0  0  0  0  0
   23.2979  -29.7447    0.0000 C   0  0  0  0  0  0  0  0  0  0  0  0
   24.0127  -30.1575    0.0000 N   0  0  0  0  0  0  0  0  0  0  0  0
   24.0110  -28.5045    0.0000 C   0  0  0  0  0  0  0  0  0  0  0  0
   24.7264  -28.9136    0.0000 C   0  0  0  0  0  0  0  0  0  0  0  0
   24.7266  -29.7447    0.0000 C   0  0  0  0  0  0  0  0  0  0  0  0
   25.5171  -30.0013    0.0000 S   0  0  0  0  0  0  0  0  0  0  0  0
   26.0054  -29.3288    0.0000 C   0  0  0  0  0  0  0  0  0  0  0  0
   25.5167  -28.6567    0.0000 N   0  0  0  0  0  0  0  0  0  0  0  0
   26.8305  -29.3285    0.0000 N   0  0  0  0  0  0  0  0  0  0  0  0
   27.2428  -28.6139    0.0000 C   0  0  0  0  0  0  0  0  0  0  0  0
   28.0677  -28.6136    0.0000 O   0  0  0  0  0  0  0  0  0  0  0  0
   26.8299  -27.8995    0.0000 N   0  0  0  0  0  0  0  0  0  0  0  0
   27.2423  -27.1849    0.0000 C   0  0  0  0  0  0  0  0  0  0  0  0
   26.8294  -26.4705    0.0000 C   0  0  0  0  0  0  0  0  0  0  0  0
   22.5832  -30.1566    0.0000 O   0  0  0  0  0  0  0  0  0  0  0  0
   24.0130  -30.9825    0.0000 C   0  0  0  0  0  0  0  0  0  0  0  0
   23.2986  -31.3953    0.0000 C   0  0  0  0  0  0  0  0  0  0  0  0
   24.7276  -31.3949    0.0000 C   0  0  0  0  0  0  0  0  0  0  0  0
   22.5845  -28.5049    0.0000 C   0  0  0  0  0  0  0  0  0  0  0  0
   22.5878  -27.6790    0.0000 C   0  0  0  0  0  0  0  0  0  0  0  0
   21.1615  -28.5088    0.0000 C   0  0  0  0  0  0  0  0  0  0  0  0
   21.8758  -28.9173    0.0000 C   0  0  0  0  0  0  0  0  0  0  0  0
   21.1586  -27.6794    0.0000 C   0  0  0  0  0  0  0  0  0  0  0  0
   21.8695  -27.2649    0.0000 N   0  0  0  0  0  0  0  0  0  0  0  0
   21.6948  -26.4606    0.0000 N   0  0  0  0  0  0  0  0  0  0  0  0
   20.8760  -26.3783    0.0000 N   0  0  0  0  0  0  0  0  0  0  0  0
   20.5447  -27.1315    0.0000 N   0  0  0  0  0  0  0  0  0  0  0  0
  1  2  1  0  0  0  0
  2  3  1  0  0  0  0
  3  6  1  0  0  0  0
  5  4  1  0  0  0  0
  4  1  2  0  0  0  0
  5  6  2  0  0  0  0
  6  7  1  0  0  0  0
  7  8  1  0  0  0  0
  8  9  2  0  0  0  0
  9  5  1  0  0  0  0
  8 10  1  0  0  0  0
 10 11  1  0  0  0  0
 11 12  2  0  0  0  0
 11 13  1  0  0  0  0
 13 14  1  0  0  0  0
 14 15  1  0  0  0  0
  2 16  2  0  0  0  0
  3 17  1  0  0  0  0
 17 18  1  0  0  0  0
 17 19  1  0  0  0  0
  1 20  1  0  0  0  0
 20 21  2  0  0  0  0
 21 25  1  0  0  0  0
 24 22  1  0  0  0  0
 22 23  2  0  0  0  0
 23 20  1  0  0  0  0
 24 25  1  0  0  0  0
 25 26  1  0  0  0  0
 26 27  2  0  0  0  0
 27 28  1  0  0  0  0
 28 24  2  0  0  0  0
M  END
> <From> 
www.bindingDB.org

> <BindingDB Reactant_set_id>
51091607

> <Ligand InChI>
InChI=1S/C17H18N8O2S/c1-4-18-16(27)20-17-19-12-7-11(14(26)25(9(2)3)15(12)28-17)10-5-6-13-21-22-23-24(13)8-10/h5-9H,4H2,1-3H3,(H2,18,19,20,27)

> <Ligand InChI Key>
YXEMZXLVGMJZKR-UHFFFAOYSA-N

> <BindingDB MonomerID>
50447295

> <BindingDB Ligand Name>
CHEMBL3114192

> <Target Name Assigned by Curator or DataSource>
DNA gyrase subunit B

> <Target Source Organism According to Curator or DataSource>


> <Ki (nM)>


> <IC50 (nM)>
 20

> <Kd (nM)>


> <EC50 (nM)>


> <kon (M-1-s-1)>


> <koff (s-1)>


> <pH>


> <Temp C>


> <Curation/DataSource>
ChEMBL

> <Article DOI>
10.1016/j.bmcl.2013.12.080

> <PMID>
24405701

> <PubChem AID>


> <Patent Number>


> <Authors>
Kale, RR; Kale, MG; Waterson, D; Raichurkar, A; Hameed, SP; Manjunatha, MR; Kishore Reddy, BK; Malolanarasimhan, K; Shinde, V; Koushik, K; Jena, LK; Menasinakai, S; Humnabadkar, V; Madhavapeddi, P; Basavarajappa, H; Sharma, S; Nandishaiah, R; Mahesh Kumar, KN; Ganguly, S; Ahuja, V; Gaonkar, S; Naveen Kumar, CN; Ogg, D; Boriack-Sjodin, PA; Sambandamurthy, VK; de Sousa, SM; Ghorpade, SR

> <Institution>
AstraZeneca

> <Link to Ligand in BindingDB>
http://www.bindingdb.org/bind/chemsearch/marvin/MolStructure.jsp?monomerid=50447295

> <Link to Ligand-Target Pair in BindingDB>
http://www.bindingdb.org/jsp/dbsearch/PrimarySearch_ki.jsp?energyterm=kJ/mole&tag=pol&polymerid=50006452&target=DNA+gyrase+subunit+B&column=ki&startPg=0&Increment=50&submit=Search

> <Link to Ligand-Target Pair in BindingDB>
http://www.bindingdb.org/jsp/dbsearch/PrimarySearch_ki.jsp?energyterm=kJ/mole&tag=r21&monomerid=50447295&enzyme=DNA+gyrase+subunit+B&column=ki&startPg=0&Increment=50&submit=Search

> <Ligand HET ID in PDB>


> <PDB ID(s) for Ligand-Target Complex>


> <PubChem CID>
76325029

> <PubChem SID>
194945191

> <ChEBI ID of Ligand>


> <ChEMBL ID of Ligand>
CHEMBL3114192

> <DrugBank ID of Ligand>


> <IUPHAR_GRAC ID of Ligand>


> <KEGG ID of Ligand>


> <ZINC ID of Ligand>


> <Number of Protein Chains in Target (>1 implies a multichain complex)>
1

> <BindingDB Target Chain Sequence>
MAAQKNNAPKEYGADSITILEGLEAVRKRPGMYIGSTGERGLHHLIWEVVDNAVDEAMAGFATRVDVKIHADGSVEVRDDGRGIPVEMHATGMPTIDVVMTQLHAGGKFDGETYAVSGGLHGVGVSVVNALSTRLEATVLRDGYEWFQYYDRSVPGKLKQGGETKETGTTIRFWADPEIFETTDYNFETVARRLQEMAFLNKGLTIELTDERVTAEEVVDDVVKDTAEAPKTADEKAAEATGPSKVKHRVFHYPGGLVDYVKHINRTKTPIQQSIIDFDGKGPGHEVEIAMQWNAGYSESVHTFANTINTHEGGTHEEGFRAALTSVVNRYAKDKKLLKDKDPNLTGDDIREGLAAVISVKVAEPQFEGQTKTKLGNTEVKSFVQKICNEQLQHWFEANPAEAKTVVNKAVSSAQARIAARKARELVRRKSATDIGGLPGKLADCRSTDPSKSELYVVEGDSAGGSAKSGRDSMFQAILPLRGKIINVEKARIDRVLKNTEVQSIITALGTGIHDEFDISKLRYHKIVLMADADVDGQHISTLLLTLLFRFMKPLVENGHIFLAQPPLYKLKWQRSEPEFAYSDRERDGLLEAGRAAGKKINVDDGIQRYKGLGEMDAKELWETTMDPSVRVLRQVTLDDAAAADELFSILMGEDVEARRSFITRNAKDVRFLDV

> <PDB ID(s) of Target Chain>
4BAE

> <UniProt (SwissProt) Recommended Name of Target Chain>
DNA gyrase subunit B

> <UniProt (SwissProt) Entry Name of Target Chain>
GYRB_MYCSM

> <UniProt (SwissProt) Primary ID of Target Chain>
P0C559

> <UniProt (SwissProt) Secondary ID(s) of Target Chain>
P48355,Q59555

> <UniProt (SwissProt) Alternative ID(s) of Target Chain>


> <UniProt (TrEMBL) Submitted Name of Target Chain>


> <UniProt (TrEMBL) Entry Name of Target Chain>


> <UniProt (TrEMBL) Primary ID of Target Chain>


> <UniProt (TrEMBL) Secondary ID(s) of Target Chain>


> <UniProt (TrEMBL) Alternative ID(s) of Target Chain>


$$$$

  Mrv0541 11241420052D          

 31 34  0  0  0  0            999 V2000
    4.6779  -15.5503    0.0000 C   0  0  0  0  0  0  0  0  0  0  0  0
    4.6767  -16.3777    0.0000 C   0  0  0  0  0  0  0  0  0  0  0  0
    5.3916  -16.7906    0.0000 N   0  0  0  0  0  0  0  0  0  0  0  0
    5.3897  -15.1375    0.0000 C   0  0  0  0  0  0  0  0  0  0  0  0
    3.9633  -15.1380    0.0000 C   0  0  0  0  0  0  0  0  0  0  0  0
    6.1051  -15.5467    0.0000 C   0  0  0  0  0  0  0  0  0  0  0  0
    6.1053  -16.3778    0.0000 C   0  0  0  0  0  0  0  0  0  0  0  0
    6.8958  -16.6343    0.0000 S   0  0  0  0  0  0  0  0  0  0  0  0
    7.3842  -15.9618    0.0000 C   0  0  0  0  0  0  0  0  0  0  0  0
    6.8954  -15.2897    0.0000 N   0  0  0  0  0  0  0  0  0  0  0  0
    8.2092  -15.9615    0.0000 N   0  0  0  0  0  0  0  0  0  0  0  0
    8.6215  -15.2469    0.0000 C   0  0  0  0  0  0  0  0  0  0  0  0
    9.4465  -15.2467    0.0000 O   0  0  0  0  0  0  0  0  0  0  0  0
    8.2087  -14.5326    0.0000 N   0  0  0  0  0  0  0  0  0  0  0  0
    8.6210  -13.8179    0.0000 C   0  0  0  0  0  0  0  0  0  0  0  0
    8.2082  -13.1036    0.0000 C   0  0  0  0  0  0  0  0  0  0  0  0
    3.9619  -16.7897    0.0000 O   0  0  0  0  0  0  0  0  0  0  0  0
    5.3918  -17.6156    0.0000 C   0  0  0  0  0  0  0  0  0  0  0  0
    4.6774  -18.0283    0.0000 C   0  0  0  0  0  0  0  0  0  0  0  0
    6.1063  -18.0279    0.0000 C   0  0  0  0  0  0  0  0  0  0  0  0
    3.9665  -14.3120    0.0000 C   0  0  0  0  0  0  0  0  0  0  0  0
    3.2528  -13.8998    0.0000 N   0  0  0  0  0  0  0  0  0  0  0  0
    2.5374  -14.3125    0.0000 C   0  0  0  0  0  0  0  0  0  0  0  0
    2.5402  -15.1418    0.0000 C   0  0  0  0  0  0  0  0  0  0  0  0
    3.2546  -15.5503    0.0000 C   0  0  0  0  0  0  0  0  0  0  0  0
    1.8216  -13.9027    0.0000 C   0  0  0  0  0  0  0  0  0  0  0  0
    1.7341  -13.0824    0.0000 N   0  0  0  0  0  0  0  0  0  0  0  0
    0.9268  -12.9121    0.0000 N   0  0  0  0  0  0  0  0  0  0  0  0
    0.5154  -13.6273    0.0000 N   0  0  0  0  0  0  0  0  0  0  0  0
    1.0684  -14.2394    0.0000 N   0  0  0  0  0  0  0  0  0  0  0  0
    0.8982  -15.0467    0.0000 C   0  0  0  0  0  0  0  0  0  0  0  0
  1  2  1  0  0  0  0
  2  3  1  0  0  0  0
  3  7  1  0  0  0  0
  6  4  1  0  0  0  0
  4  1  2  0  0  0  0
  1  5  1  0  0  0  0
  6  7  2  0  0  0  0
  7  8  1  0  0  0  0
  8  9  1  0  0  0  0
  9 10  2  0  0  0  0
 10  6  1  0  0  0  0
  9 11  1  0  0  0  0
 11 12  1  0  0  0  0
 12 13  2  0  0  0  0
 12 14  1  0  0  0  0
 14 15  1  0  0  0  0
 15 16  1  0  0  0  0
  2 17  2  0  0  0  0
  3 18  1  0  0  0  0
 18 19  1  0  0  0  0
 18 20  1  0  0  0  0
  5 21  2  0  0  0  0
 21 22  1  0  0  0  0
 22 23  2  0  0  0  0
 23 24  1  0  0  0  0
 24 25  2  0  0  0  0
 25  5  1  0  0  0  0
 26 27  2  0  0  0  0
 27 28  1  0  0  0  0
 28 29  2  0  0  0  0
 29 30  1  0  0  0  0
 30 26  1  0  0  0  0
 23 26  1  0  0  0  0
 30 31  1  0  0  0  0
M  END
> <From> 
www.bindingDB.org

> <BindingDB Reactant_set_id>
51091614

> <Ligand InChI>
InChI=1S/C19H21N9O2S/c1-5-20-18(30)23-19-22-14-8-12(16(29)28(10(2)3)17(14)31-19)11-6-7-13(21-9-11)15-24-25-26-27(15)4/h6-10H,5H2,1-4H3,(H2,20,22,23,30)

> <Ligand InChI Key>
PHWSEHLIXFUKOW-UHFFFAOYSA-N

> <BindingDB MonomerID>
50447302

> <BindingDB Ligand Name>
CHEMBL3114204

> <Target Name Assigned by Curator or DataSource>
DNA gyrase subunit B

> <Target Source Organism According to Curator or DataSource>


> <Ki (nM)>


> <IC50 (nM)>
 20

> <Kd (nM)>


> <EC50 (nM)>


> <kon (M-1-s-1)>


> <koff (s-1)>


> <pH>


> <Temp C>


> <Curation/DataSource>
ChEMBL

> <Article DOI>
10.1016/j.bmcl.2013.12.080

> <PMID>
24405701

> <PubChem AID>


> <Patent Number>


> <Authors>
Kale, RR; Kale, MG; Waterson, D; Raichurkar, A; Hameed, SP; Manjunatha, MR; Kishore Reddy, BK; Malolanarasimhan, K; Shinde, V; Koushik, K; Jena, LK; Menasinakai, S; Humnabadkar, V; Madhavapeddi, P; Basavarajappa, H; Sharma, S; Nandishaiah, R; Mahesh Kumar, KN; Ganguly, S; Ahuja, V; Gaonkar, S; Naveen Kumar, CN; Ogg, D; Boriack-Sjodin, PA; Sambandamurthy, VK; de Sousa, SM; Ghorpade, SR

> <Institution>
AstraZeneca

> <Link to Ligand in BindingDB>
http://www.bindingdb.org/bind/chemsearch/marvin/MolStructure.jsp?monomerid=50447302

> <Link to Ligand-Target Pair in BindingDB>
http://www.bindingdb.org/jsp/dbsearch/PrimarySearch_ki.jsp?energyterm=kJ/mole&tag=pol&polymerid=50006452&target=DNA+gyrase+subunit+B&column=ki&startPg=0&Increment=50&submit=Search

> <Link to Ligand-Target Pair in BindingDB>
http://www.bindingdb.org/jsp/dbsearch/PrimarySearch_ki.jsp?energyterm=kJ/mole&tag=r21&monomerid=50447302&enzyme=DNA+gyrase+subunit+B&column=ki&startPg=0&Increment=50&submit=Search

> <Ligand HET ID in PDB>


> <PDB ID(s) for Ligand-Target Complex>


> <PubChem CID>
76325030

> <PubChem SID>
194945198

> <ChEBI ID of Ligand>


> <ChEMBL ID of Ligand>
CHEMBL3114204

> <DrugBank ID of Ligand>


> <IUPHAR_GRAC ID of Ligand>


> <KEGG ID of Ligand>


> <ZINC ID of Ligand>


> <Number of Protein Chains in Target (>1 implies a multichain complex)>
1

> <BindingDB Target Chain Sequence>
MAAQKNNAPKEYGADSITILEGLEAVRKRPGMYIGSTGERGLHHLIWEVVDNAVDEAMAGFATRVDVKIHADGSVEVRDDGRGIPVEMHATGMPTIDVVMTQLHAGGKFDGETYAVSGGLHGVGVSVVNALSTRLEATVLRDGYEWFQYYDRSVPGKLKQGGETKETGTTIRFWADPEIFETTDYNFETVARRLQEMAFLNKGLTIELTDERVTAEEVVDDVVKDTAEAPKTADEKAAEATGPSKVKHRVFHYPGGLVDYVKHINRTKTPIQQSIIDFDGKGPGHEVEIAMQWNAGYSESVHTFANTINTHEGGTHEEGFRAALTSVVNRYAKDKKLLKDKDPNLTGDDIREGLAAVISVKVAEPQFEGQTKTKLGNTEVKSFVQKICNEQLQHWFEANPAEAKTVVNKAVSSAQARIAARKARELVRRKSATDIGGLPGKLADCRSTDPSKSELYVVEGDSAGGSAKSGRDSMFQAILPLRGKIINVEKARIDRVLKNTEVQSIITALGTGIHDEFDISKLRYHKIVLMADADVDGQHISTLLLTLLFRFMKPLVENGHIFLAQPPLYKLKWQRSEPEFAYSDRERDGLLEAGRAAGKKINVDDGIQRYKGLGEMDAKELWETTMDPSVRVLRQVTLDDAAAADELFSILMGEDVEARRSFITRNAKDVRFLDV

> <PDB ID(s) of Target Chain>
4BAE

> <UniProt (SwissProt) Recommended Name of Target Chain>
DNA gyrase subunit B

> <UniProt (SwissProt) Entry Name of Target Chain>
GYRB_MYCSM

> <UniProt (SwissProt) Primary ID of Target Chain>
P0C559

> <UniProt (SwissProt) Secondary ID(s) of Target Chain>
P48355,Q59555

> <UniProt (SwissProt) Alternative ID(s) of Target Chain>


> <UniProt (TrEMBL) Submitted Name of Target Chain>


> <UniProt (TrEMBL) Entry Name of Target Chain>


> <UniProt (TrEMBL) Primary ID of Target Chain>


> <UniProt (TrEMBL) Secondary ID(s) of Target Chain>


> <UniProt (TrEMBL) Alternative ID(s) of Target Chain>


$$$$

  Mrv0541 11241420052D          

 29 32  0  0  0  0            999 V2000
   19.7692  -18.1873    0.0000 C   0  0  0  0  0  0  0  0  0  0  0  0
   19.7680  -19.0147    0.0000 C   0  0  0  0  0  0  0  0  0  0  0  0
   20.4829  -19.4275    0.0000 N   0  0  0  0  0  0  0  0  0  0  0  0
   20.4810  -17.7746    0.0000 C   0  0  0  0  0  0  0  0  0  0  0  0
   19.0547  -17.7750    0.0000 C   0  0  0  0  0  0  0  0  0  0  0  0
   19.0579  -16.9491    0.0000 C   0  0  0  0  0  0  0  0  0  0  0  0
   18.3441  -16.5368    0.0000 N   0  0  0  0  0  0  0  0  0  0  0  0
   17.6288  -16.9495    0.0000 C   0  0  0  0  0  0  0  0  0  0  0  0
   17.6317  -17.7788    0.0000 C   0  0  0  0  0  0  0  0  0  0  0  0
   18.3460  -18.1873    0.0000 C   0  0  0  0  0  0  0  0  0  0  0  0
   21.1964  -18.1836    0.0000 C   0  0  0  0  0  0  0  0  0  0  0  0
   21.1967  -19.0147    0.0000 C   0  0  0  0  0  0  0  0  0  0  0  0
   21.9871  -19.2713    0.0000 S   0  0  0  0  0  0  0  0  0  0  0  0
   22.4755  -18.5988    0.0000 C   0  0  0  0  0  0  0  0  0  0  0  0
   21.9867  -17.9267    0.0000 N   0  0  0  0  0  0  0  0  0  0  0  0
   23.3004  -18.5984    0.0000 N   0  0  0  0  0  0  0  0  0  0  0  0
   23.7127  -17.8839    0.0000 C   0  0  0  0  0  0  0  0  0  0  0  0
   24.5377  -17.8836    0.0000 O   0  0  0  0  0  0  0  0  0  0  0  0
   23.3000  -17.1695    0.0000 N   0  0  0  0  0  0  0  0  0  0  0  0
   23.7122  -16.4550    0.0000 C   0  0  0  0  0  0  0  0  0  0  0  0
   23.2995  -15.7406    0.0000 C   0  0  0  0  0  0  0  0  0  0  0  0
   19.0532  -19.4266    0.0000 O   0  0  0  0  0  0  0  0  0  0  0  0
   20.4831  -20.2525    0.0000 C   0  0  0  0  0  0  0  0  0  0  0  0
   19.7687  -20.6652    0.0000 C   0  0  0  0  0  0  0  0  0  0  0  0
   19.0583  -20.2502    0.0000 C   0  0  0  0  0  0  0  0  0  0  0  0
   18.3461  -20.6593    0.0000 C   0  0  0  0  0  0  0  0  0  0  0  0
   18.3420  -21.4846    0.0000 C   0  0  0  0  0  0  0  0  0  0  0  0
   19.0565  -21.8992    0.0000 C   0  0  0  0  0  0  0  0  0  0  0  0
   19.7749  -21.4883    0.0000 C   0  0  0  0  0  0  0  0  0  0  0  0
  1  2  1  0  0  0  0
  2  3  1  0  0  0  0
  3 12  1  0  0  0  0
 11  4  1  0  0  0  0
  4  1  2  0  0  0  0
  1  5  1  0  0  0  0
  5  6  2  0  0  0  0
  6  7  1  0  0  0  0
  7  8  2  0  0  0  0
  8  9  1  0  0  0  0
  9 10  2  0  0  0  0
 10  5  1  0  0  0  0
 11 12  2  0  0  0  0
 12 13  1  0  0  0  0
 13 14  1  0  0  0  0
 14 15  2  0  0  0  0
 15 11  1  0  0  0  0
 14 16  1  0  0  0  0
 16 17  1  0  0  0  0
 17 18  2  0  0  0  0
 17 19  1  0  0  0  0
 19 20  1  0  0  0  0
 20 21  1  0  0  0  0
  2 22  2  0  0  0  0
  3 23  1  0  0  0  0
 23 24  1  0  0  0  0
 24 25  1  0  0  0  0
 24 29  1  0  0  0  0
 25 26  1  0  0  0  0
 26 27  1  0  0  0  0
 27 28  1  0  0  0  0
 28 29  1  0  0  0  0
M  END
> <From> 
www.bindingDB.org

> <BindingDB Reactant_set_id>
51091624

> <Ligand InChI>
InChI=1S/C21H25N5O2S/c1-2-23-20(28)25-21-24-17-11-16(15-9-6-10-22-12-15)18(27)26(19(17)29-21)13-14-7-4-3-5-8-14/h6,9-12,14H,2-5,7-8,13H2,1H3,(H2,23,24,25,28)

> <Ligand InChI Key>
OUOXPHUGQSVSFK-UHFFFAOYSA-N

> <BindingDB MonomerID>
50447312

> <BindingDB Ligand Name>
CHEMBL3114222

> <Target Name Assigned by Curator or DataSource>
DNA gyrase subunit B

> <Target Source Organism According to Curator or DataSource>


> <Ki (nM)>


> <IC50 (nM)>
 20

> <Kd (nM)>


> <EC50 (nM)>


> <kon (M-1-s-1)>


> <koff (s-1)>


> <pH>


> <Temp C>


> <Curation/DataSource>
ChEMBL

> <Article DOI>
10.1016/j.bmcl.2013.12.080

> <PMID>
24405701

> <PubChem AID>


> <Patent Number>


> <Authors>
Kale, RR; Kale, MG; Waterson, D; Raichurkar, A; Hameed, SP; Manjunatha, MR; Kishore Reddy, BK; Malolanarasimhan, K; Shinde, V; Koushik, K; Jena, LK; Menasinakai, S; Humnabadkar, V; Madhavapeddi, P; Basavarajappa, H; Sharma, S; Nandishaiah, R; Mahesh Kumar, KN; Ganguly, S; Ahuja, V; Gaonkar, S; Naveen Kumar, CN; Ogg, D; Boriack-Sjodin, PA; Sambandamurthy, VK; de Sousa, SM; Ghorpade, SR

> <Institution>
AstraZeneca

> <Link to Ligand in BindingDB>
http://www.bindingdb.org/bind/chemsearch/marvin/MolStructure.jsp?monomerid=50447312

> <Link to Ligand-Target Pair in BindingDB>
http://www.bindingdb.org/jsp/dbsearch/PrimarySearch_ki.jsp?energyterm=kJ/mole&tag=pol&polymerid=50006452&target=DNA+gyrase+subunit+B&column=ki&startPg=0&Increment=50&submit=Search

> <Link to Ligand-Target Pair in BindingDB>
http://www.bindingdb.org/jsp/dbsearch/PrimarySearch_ki.jsp?energyterm=kJ/mole&tag=r21&monomerid=50447312&enzyme=DNA+gyrase+subunit+B&column=ki&startPg=0&Increment=50&submit=Search

> <Ligand HET ID in PDB>


> <PDB ID(s) for Ligand-Target Complex>


> <PubChem CID>
76310501

> <PubChem SID>
194945208

> <ChEBI ID of Ligand>


> <ChEMBL ID of Ligand>
CHEMBL3114222

> <DrugBank ID of Ligand>


> <IUPHAR_GRAC ID of Ligand>


> <KEGG ID of Ligand>


> <ZINC ID of Ligand>


> <Number of Protein Chains in Target (>1 implies a multichain complex)>
1

> <BindingDB Target Chain Sequence>
MAAQKNNAPKEYGADSITILEGLEAVRKRPGMYIGSTGERGLHHLIWEVVDNAVDEAMAGFATRVDVKIHADGSVEVRDDGRGIPVEMHATGMPTIDVVMTQLHAGGKFDGETYAVSGGLHGVGVSVVNALSTRLEATVLRDGYEWFQYYDRSVPGKLKQGGETKETGTTIRFWADPEIFETTDYNFETVARRLQEMAFLNKGLTIELTDERVTAEEVVDDVVKDTAEAPKTADEKAAEATGPSKVKHRVFHYPGGLVDYVKHINRTKTPIQQSIIDFDGKGPGHEVEIAMQWNAGYSESVHTFANTINTHEGGTHEEGFRAALTSVVNRYAKDKKLLKDKDPNLTGDDIREGLAAVISVKVAEPQFEGQTKTKLGNTEVKSFVQKICNEQLQHWFEANPAEAKTVVNKAVSSAQARIAARKARELVRRKSATDIGGLPGKLADCRSTDPSKSELYVVEGDSAGGSAKSGRDSMFQAILPLRGKIINVEKARIDRVLKNTEVQSIITALGTGIHDEFDISKLRYHKIVLMADADVDGQHISTLLLTLLFRFMKPLVENGHIFLAQPPLYKLKWQRSEPEFAYSDRERDGLLEAGRAAGKKINVDDGIQRYKGLGEMDAKELWETTMDPSVRVLRQVTLDDAAAADELFSILMGEDVEARRSFITRNAKDVRFLDV

> <PDB ID(s) of Target Chain>
4BAE

> <UniProt (SwissProt) Recommended Name of Target Chain>
DNA gyrase subunit B

> <UniProt (SwissProt) Entry Name of Target Chain>
GYRB_MYCSM

> <UniProt (SwissProt) Primary ID of Target Chain>
P0C559

> <UniProt (SwissProt) Secondary ID(s) of Target Chain>
P48355,Q59555

> <UniProt (SwissProt) Alternative ID(s) of Target Chain>


> <UniProt (TrEMBL) Submitted Name of Target Chain>


> <UniProt (TrEMBL) Entry Name of Target Chain>


> <UniProt (TrEMBL) Primary ID of Target Chain>


> <UniProt (TrEMBL) Secondary ID(s) of Target Chain>


> <UniProt (TrEMBL) Alternative ID(s) of Target Chain>


$$$$

  Mrv0541 11231422262D          

 25 27  0  0  0  0            999 V2000
    5.0576   -9.7403    0.0000 N   0  0  0  0  0  0  0  0  0  0  0  0
    4.3843   -9.2536    0.0000 C   0  0  0  0  0  0  0  0  0  0  0  0
    4.6410   -8.4654    0.0000 C   0  0  0  0  0  0  0  0  0  0  0  0
    5.4700   -8.4654    0.0000 C   0  0  0  0  0  0  0  0  0  0  0  0
    5.7266   -9.2541    0.0000 C   0  0  0  0  0  0  0  0  0  0  0  0
    3.6000   -9.5093    0.0000 C   0  0  0  0  0  0  0  0  0  0  0  0
    6.4434   -9.6624    0.0000 C   0  0  0  0  0  0  0  0  0  0  0  0
    6.4482  -10.4872    0.0000 O   0  0  0  0  0  0  0  0  0  0  0  0
    7.1553   -9.2458    0.0000 N   0  0  0  0  0  0  0  0  0  0  0  0
    7.8721   -9.6541    0.0000 C   0  0  0  0  0  0  0  0  0  0  0  0
    7.8732  -10.4810    0.0000 C   0  0  0  0  0  0  0  0  0  0  0  0
    8.5859  -10.8892    0.0000 C   0  0  0  0  0  0  0  0  0  0  0  0
    9.3003  -10.4760    0.0000 N   0  0  0  0  0  0  0  0  0  0  0  0
    9.2974   -9.6502    0.0000 C   0  0  0  0  0  0  0  0  0  0  0  0
    8.5802   -9.2375    0.0000 C   0  0  0  0  0  0  0  0  0  0  0  0
   10.0157  -10.8869    0.0000 C   0  0  0  0  0  0  0  0  0  0  0  0
    4.1563   -7.7979    0.0000 Cl  0  0  0  0  0  0  0  0  0  0  0  0
    5.9548   -7.7980    0.0000 Cl  0  0  0  0  0  0  0  0  0  0  0  0
   10.2784  -11.6686    0.0000 S   0  0  0  0  0  0  0  0  0  0  0  0
   11.1032  -11.6615    0.0000 C   0  0  0  0  0  0  0  0  0  0  0  0
   11.3513  -10.8747    0.0000 C   0  0  0  0  0  0  0  0  0  0  0  0
   10.6798  -10.3958    0.0000 N   0  0  0  0  0  0  0  0  0  0  0  0
   12.0584  -10.4489    0.0000 C   0  0  0  0  0  0  0  0  0  0  0  0
   12.7800  -10.8487    0.0000 O   0  0  0  0  0  0  0  0  0  0  0  0
   12.0438   -9.6243    0.0000 O   0  0  0  0  0  0  0  0  0  0  0  0
  5  7  1  0  0  0  0
 10 15  1  0  0  0  0
 11 12  1  0  0  0  0
 12 13  1  0  0  0  0
 13 14  1  0  0  0  0
 14 15  1  0  0  0  0
  1  2  1  0  0  0  0
 13 16  1  0  0  0  0
  7  8  2  0  0  0  0
  3 17  1  0  0  0  0
  3  4  1  0  0  0  0
  4 18  1  0  0  0  0
 16 19  1  0  0  0  0
  7  9  1  0  0  0  0
  4  5  2  0  0  0  0
  9 10  1  0  0  0  0
 10 11  1  0  0  0  0
 19 20  1  0  0  0  0
 20 21  2  0  0  0  0
 21 22  1  0  0  0  0
 22 16  2  0  0  0  0
  5  1  1  0  0  0  0
 21 23  1  0  0  0  0
  2  3  2  0  0  0  0
 23 24  1  0  0  0  0
  2  6  1  0  0  0  0
 23 25  2  0  0  0  0
M  END
> <From> 
www.bindingDB.org

> <BindingDB Reactant_set_id>
50705127

> <Ligand InChI>
InChI=1S/C15H16Cl2N4O3S/c1-7-10(16)11(17)12(18-7)13(22)19-8-2-4-21(5-3-8)15-20-9(6-25-15)14(23)24/h6,8,18H,2-5H2,1H3,(H,19,22)(H,23,24)

> <Ligand InChI Key>
HTNKDZWIWRHOKT-UHFFFAOYSA-N

> <BindingDB MonomerID>
50358849

> <BindingDB Ligand Name>
CHEMBL1923434

> <Target Name Assigned by Curator or DataSource>
DNA Gyrase Subunit B

> <Target Source Organism According to Curator or DataSource>
Staphylococcus aureus

> <Ki (nM)>


> <IC50 (nM)>
 20

> <Kd (nM)>


> <EC50 (nM)>


> <kon (M-1-s-1)>


> <koff (s-1)>


> <pH>


> <Temp C>


> <Curation/DataSource>
ChEMBL

> <Article DOI>
10.1016/j.bmcl.2011.10.010

> <PMID>
22041057

> <PubChem AID>


> <Patent Number>


> <Authors>
Sherer, BA; Hull, K; Green, O; Basarab, G; Hauck, S; Hill, P; Loch, JT; Mullen, G; Bist, S; Bryant, J; Boriack-Sjodin, A; Read, J; DeGrace, N; Uria-Nickelsen, M; Illingworth, RN; Eakin, AE

> <Institution>
AstraZeneca R&amp;D Boston

> <Link to Ligand in BindingDB>
http://www.bindingdb.org/bind/chemsearch/marvin/MolStructure.jsp?monomerid=50358849

> <Link to Ligand-Target Pair in BindingDB>
http://www.bindingdb.org/jsp/dbsearch/PrimarySearch_ki.jsp?energyterm=kJ/mole&tag=pol&polymerid=2626&target=DNA+Gyrase+Subunit+B&column=ki&startPg=0&Increment=50&submit=Search

> <Link to Ligand-Target Pair in BindingDB>
http://www.bindingdb.org/jsp/dbsearch/PrimarySearch_ki.jsp?energyterm=kJ/mole&tag=r21&monomerid=50358849&enzyme=DNA+Gyrase+Subunit+B&column=ki&startPg=0&Increment=50&submit=Search

> <Ligand HET ID in PDB>


> <PDB ID(s) for Ligand-Target Complex>


> <PubChem CID>
11258170

> <PubChem SID>
136962873

> <ChEBI ID of Ligand>


> <ChEMBL ID of Ligand>
CHEMBL1923434

> <DrugBank ID of Ligand>


> <IUPHAR_GRAC ID of Ligand>


> <KEGG ID of Ligand>


> <ZINC ID of Ligand>
ZINC73156953

> <Number of Protein Chains in Target (>1 implies a multichain complex)>
1

> <BindingDB Target Chain Sequence>
MVTALSDVNNTDNYGAGQIQVLEGLEAVRKRPGMYIGSTSERGLHHLVWEIVDNSIDEALAGYANQIEVVIEKDNWIKVTDNGRGIPVDIQEKMGRPAVEVILTVLHAGGKFGGGGYKVSGGLHGVGSSVVNALSQDLEVYVHRNETIYHQAYKKGVPQFDLKEVGTTDKTGTVIRFKADGEIFTETTVYNYETLQQRIRELAFLNKGIQITLRDERDEENVREDSYHYEGGIKSYVELLNENKEPIHDEPIYIHQSKDDIEVEIAIQYNSGYATNLLTYANNIHTYEGGTHEDGFKRALTRVLNSYGLSSKIMKEEKDRLSGEDTREGMTAIISIKHGDPQFEGQTKTKLGNSEVRQVVDKLFSEHFERFLYENPQVARTVVEKGIMAARARVAAKKAREVTRRKSALDVASLPGKLADCSSKSPEECEIFLVEGDSAGGSTKSGRDSRTQAILPLRGKILNVEKARLDRILNNNEIRQMITAFGTGIGGDFDLAKARYHKIVIMTDADVDGAHIRTLLLTFFYRFMRPLIEAGYVYIAQPPLYKLTQGKQKYYVYNDRELDKLKSELNPTPKWSIARYKGLGEMNADQLWETTMNPEHRALLQVKLEDAIEADQTFEMLMGDVVENRRQFIEDNAVYANLDF

> <PDB ID(s) of Target Chain>


> <UniProt (SwissProt) Recommended Name of Target Chain>
DNA gyrase subunit B

> <UniProt (SwissProt) Entry Name of Target Chain>
GYRB_STAAU

> <UniProt (SwissProt) Primary ID of Target Chain>
P0A0K8

> <UniProt (SwissProt) Secondary ID(s) of Target Chain>
P20832

> <UniProt (SwissProt) Alternative ID(s) of Target Chain>


> <UniProt (TrEMBL) Submitted Name of Target Chain>


> <UniProt (TrEMBL) Entry Name of Target Chain>


> <UniProt (TrEMBL) Primary ID of Target Chain>


> <UniProt (TrEMBL) Secondary ID(s) of Target Chain>


> <UniProt (TrEMBL) Alternative ID(s) of Target Chain>


$$$$

  Mrv0541 11231413392D          

 46 50  0  0  0  0            999 V2000
   -0.0147    1.1829    0.0000 C   0  0  0  0  0  0  0  0  0  0  0  0
   -0.7407    1.5844    0.0000 C   0  0  1  0  0  0  0  0  0  0  0  0
   -1.4474    1.1589    0.0000 C   0  0  2  0  0  0  0  0  0  0  0  0
   -1.4346    0.3300    0.0000 C   0  0  2  0  0  0  0  0  0  0  0  0
   -0.7086   -0.0715    0.0000 C   0  0  1  0  0  0  0  0  0  0  0  0
    0.0044    0.3558    0.0000 O   0  0  0  0  0  0  0  0  0  0  0  0
   -0.6943   -0.8964    0.0000 O   0  0  0  0  0  0  0  0  0  0  0  0
    0.0254   -1.3076    0.0000 C   0  0  0  0  0  0  0  0  0  0  0  0
    0.0246   -2.1322    0.0000 C   0  0  0  0  0  0  0  0  0  0  0  0
    0.7403   -0.8934    0.0000 C   0  0  0  0  0  0  0  0  0  0  0  0
    1.4547   -1.3110    0.0000 C   0  0  0  0  0  0  0  0  0  0  0  0
    1.4528   -2.1358    0.0000 C   0  0  0  0  0  0  0  0  0  0  0  0
    0.7376   -2.5473    0.0000 C   0  0  0  0  0  0  0  0  0  0  0  0
    0.7364   -3.3680    0.0000 O   0  0  0  0  0  0  0  0  0  0  0  0
    1.4488   -3.7833    0.0000 C   0  0  0  0  0  0  0  0  0  0  0  0
    2.1640   -3.3717    0.0000 C   0  0  0  0  0  0  0  0  0  0  0  0
    2.1669   -2.5449    0.0000 C   0  0  0  0  0  0  0  0  0  0  0  0
    2.8814   -2.1325    0.0000 O   0  0  0  0  0  0  0  0  0  0  0  0
    1.4463   -4.6082    0.0000 O   0  0  0  0  0  0  0  0  0  0  0  0
    2.8774   -3.7860    0.0000 N   0  0  0  0  0  0  0  0  0  0  0  0
    2.8753   -4.6109    0.0000 C   0  0  0  0  0  0  0  0  0  0  0  0
    2.1599   -5.0217    0.0000 O   0  0  0  0  0  0  0  0  0  0  0  0
    3.5887   -5.0253    0.0000 C   0  0  0  0  0  0  0  0  0  0  0  0
    3.5838   -5.8494    0.0000 C   0  0  0  0  0  0  0  0  0  0  0  0
    4.2963   -6.2636    0.0000 C   0  0  0  0  0  0  0  0  0  0  0  0
    5.0129   -5.8528    0.0000 C   0  0  0  0  0  0  0  0  0  0  0  0
    5.0123   -5.0236    0.0000 C   0  0  0  0  0  0  0  0  0  0  0  0
    4.2991   -4.6131    0.0000 C   0  0  0  0  0  0  0  0  0  0  0  0
    5.7268   -6.2662    0.0000 O   0  0  0  0  0  0  0  0  0  0  0  0
    0.8128    1.2017    0.0000 C   0  0  0  0  0  0  0  0  0  0  0  0
   -0.0256    2.0059    0.0000 C   0  0  0  0  0  0  0  0  0  0  0  0
   -0.7558    2.4092    0.0000 O   0  0  0  0  0  0  0  0  0  0  0  0
   -0.0491    2.8347    0.0000 C   0  0  0  0  0  0  0  0  0  0  0  0
   -2.1688    1.5592    0.0000 O   0  0  0  0  0  0  0  0  0  0  0  0
   -2.1828    2.3841    0.0000 C   0  0  0  0  0  0  0  0  0  0  0  0
   -2.9038    2.7847    0.0000 C   0  0  0  0  0  0  0  0  0  0  0  0
   -1.4754    2.8085    0.0000 O   0  0  0  0  0  0  0  0  0  0  0  0
   -2.1418   -0.0945    0.0000 O   0  0  0  0  0  0  0  0  0  0  0  0
   -3.1396    3.5782    0.0000 C   0  0  0  0  0  0  0  0  0  0  0  0
   -3.9643    3.6013    0.0000 C   0  0  0  0  0  0  0  0  0  0  0  0
   -4.2410    2.8240    0.0000 C   0  0  0  0  0  0  0  0  0  0  0  0
   -3.5874    2.3208    0.0000 N   0  0  0  0  0  0  0  0  0  0  0  0
   -4.9590    2.4199    0.0000 C   0  0  0  0  0  0  0  0  0  0  0  0
   -0.6907   -2.5430    0.0000 Cl  0  0  0  0  0  0  0  0  0  0  0  0
    5.7263   -4.6104    0.0000 O   0  0  0  0  0  0  0  0  0  0  0  0
    6.4412   -5.0221    0.0000 C   0  0  0  0  0  0  0  0  0  0  0  0
 21 22  2  0  0  0  0
 11 10  1  0  0  0  0
 21 23  1  0  0  0  0
 11 12  2  0  0  0  0
 23 24  2  0  0  0  0
  3  4  1  0  0  0  0
 24 25  1  0  0  0  0
 12 13  1  0  0  0  0
 25 26  2  0  0  0  0
  4  5  1  0  0  0  0
 26 27  1  0  0  0  0
  5  6  1  0  0  0  0
 27 28  2  0  0  0  0
 28 23  1  0  0  0  0
 26 29  1  0  0  0  0
  5  7  1  1  0  0  0
  1 30  1  0  0  0  0
  2  1  1  0  0  0  0
  1 31  1  0  0  0  0
  7  8  1  0  0  0  0
  2 32  1  1  0  0  0
 12 17  1  0  0  0  0
 32 33  1  0  0  0  0
 13 14  1  0  0  0  0
  3 34  1  6  0  0  0
 14 15  1  0  0  0  0
 34 35  1  0  0  0  0
 15 16  1  0  0  0  0
 35 36  1  0  0  0  0
 16 17  2  0  0  0  0
 35 37  2  0  0  0  0
  8  9  1  0  0  0  0
  4 38  1  6  0  0  0
 36 39  2  0  0  0  0
 17 18  1  0  0  0  0
  1  6  1  0  0  0  0
 15 19  2  0  0  0  0
  3  2  1  0  0  0  0
 39 40  1  0  0  0  0
 40 41  2  0  0  0  0
 41 42  1  0  0  0  0
 42 36  1  0  0  0  0
 16 20  1  0  0  0  0
 41 43  1  0  0  0  0
  8 10  2  0  0  0  0
  9 44  1  0  0  0  0
 20 21  1  0  0  0  0
 27 45  1  0  0  0  0
  9 13  2  0  0  0  0
 45 46  1  0  0  0  0
M  END
> <From> 
www.bindingDB.org

> <BindingDB Reactant_set_id>
50607702

> <Ligand InChI>
InChI=1S/C31H31ClN2O12/c1-13-6-9-16(33-13)28(39)45-25-23(37)30(46-31(2,3)26(25)42-5)43-18-11-8-15-22(36)21(29(40)44-24(15)20(18)32)34-27(38)14-7-10-17(35)19(12-14)41-4/h6-12,23,25-26,30,33,35-37H,1-5H3,(H,34,38)/t23-,25+,26-,30-/m1/s1

> <Ligand InChI Key>
LNDDBMXOCFEELJ-CPPKFOPJSA-N

> <BindingDB MonomerID>
50330309

> <BindingDB Ligand Name>
(3R,4S,5R,6S)-6-(8-chloro-4-hydroxy-3-(4-hydroxy-3-methoxybenzamido)-2-oxo-2H-chromen-7-yloxy)-5-hydroxy-3-methoxy-2,2-dimethyltetrahydro-2H-pyran-4-yl 5-methyl-1H-pyrrole-2-carboxylate::CHEMBL1275884

> <Target Name Assigned by Curator or DataSource>
DNA Gyrase Subunit B

> <Target Source Organism According to Curator or DataSource>
Escherichia coli

> <Ki (nM)>


> <IC50 (nM)>
 22

> <Kd (nM)>


> <EC50 (nM)>


> <kon (M-1-s-1)>


> <koff (s-1)>


> <pH>


> <Temp C>


> <Curation/DataSource>
ChEMBL

> <Article DOI>
10.1128/AAC.01235-07

> <PMID>
18347114

> <PubChem AID>


> <Patent Number>


> <Authors>
Anderle, C; Stieger, M; Burrell, M; Reinelt, S; Maxwell, A; Page, M; Heide, L

> <Institution>
Universit&#228;t T&#252;bingen

> <Link to Ligand in BindingDB>
http://www.bindingdb.org/bind/chemsearch/marvin/MolStructure.jsp?monomerid=50330309

> <Link to Ligand-Target Pair in BindingDB>
http://www.bindingdb.org/jsp/dbsearch/PrimarySearch_ki.jsp?energyterm=kJ/mole&tag=pol&polymerid=2630&target=DNA+Gyrase+Subunit+B&column=ki&startPg=0&Increment=50&submit=Search

> <Link to Ligand-Target Pair in BindingDB>
http://www.bindingdb.org/jsp/dbsearch/PrimarySearch_ki.jsp?energyterm=kJ/mole&tag=r21&monomerid=50330309&enzyme=DNA+Gyrase+Subunit+B&column=ki&startPg=0&Increment=50&submit=Search

> <Ligand HET ID in PDB>


> <PDB ID(s) for Ligand-Target Complex>


> <PubChem CID>
54708659

> <PubChem SID>
123109424

> <ChEBI ID of Ligand>


> <ChEMBL ID of Ligand>
CHEMBL1275884

> <DrugBank ID of Ligand>


> <IUPHAR_GRAC ID of Ligand>


> <KEGG ID of Ligand>


> <ZINC ID of Ligand>
ZINC72138085

> <Number of Protein Chains in Target (>1 implies a multichain complex)>
1

> <BindingDB Target Chain Sequence>
MSNSYDSSSIKVLKGLDAVRKRPGMYIGDTDDGTGLHHMVFEVVDNAIDEALAGHCKEII
VTIHADNSVSVQDDGRGIPTGIHPEEGVSAAEVIMTVLHAGGKFDDNSYKVSGGLHGVGV
SVVNALSQKLELVIQREGKIHRQIYEHGVPQAPLAVTGETEKTGTMVRFWPSLETFTNVT
EFEYEILAKRLRELSFLNSGVSIRLRDKRDGKEDHFHYEGGIKAFVEYLNKNKTPIHPNI
FYFSTEKDGIGVEVALQWNDGFQENIYCFTNNIPQRDGGTHLAGFRAAMTRTLNAYMDKE
GYSKKAKVSATGDDAREGLIAVVSVKVPDPKFSSQTKDKLVSSEVKSAVEQQMNELLAEY
LLENPTDAKIVVGKIIDAARAREAARRAREMTRRKGALDLAGLPGKLADCQERDPALSEL
YLVEGDSAGGSAKQGRNRKNQAILPLKGKILNVEKARFDKMLSSQEVATLITALGCGIGR
DEYNPDKLRYHSIIIMTDADVDGSHIRTLLLTFFYRQMPEIVERGHVYIAQPPLYKVKKG
KQEQYIKDDEAMDQYQISIALDGATLHTNASAPALAGEALEKLVSEYNATQKMINRMERR
YPKAMLKELIYQPTLTEADLSDEQTVTRWVNALVSELNDKEQHGSQWKFDVHTNAEQNLF
EPIVRVRTHGVDTDYPLDHEFITGGEYRRICTLGEKLRGLLEEDAFIERGERRQPVASFE
QALDWLVKESRRGLSIQRYKGLGEMNPEQLWETTMDPESRRMLRVTVKDAIAADQLFTTL
MGDAVEPRRAFIEENALKAANIDI

> <PDB ID(s) of Target Chain>
1KZN,3G7E,3NUH,4DUH,4HYP,4KFG,4PRV,4PRX,4PU9,4WUB,4WUC,4WUD,4XTJ,4ZVI,5L3J,5MMN,5MMO,5MMP,5Z4H,5Z4O,5Z9B,5Z9E,5Z9F,5Z9L,5Z9M,5Z9N,5Z9Q,6ENG,6F86,6F8J,6F94,6F96

> <UniProt (SwissProt) Recommended Name of Target Chain>
DNA gyrase subunit B

> <UniProt (SwissProt) Entry Name of Target Chain>
GYRB_ECOLI

> <UniProt (SwissProt) Primary ID of Target Chain>
P0AES6

> <UniProt (SwissProt) Secondary ID(s) of Target Chain>
O08438,P06982,Q2M811

> <UniProt (SwissProt) Alternative ID(s) of Target Chain>


> <UniProt (TrEMBL) Submitted Name of Target Chain>


> <UniProt (TrEMBL) Entry Name of Target Chain>


> <UniProt (TrEMBL) Primary ID of Target Chain>


> <UniProt (TrEMBL) Secondary ID(s) of Target Chain>


> <UniProt (TrEMBL) Alternative ID(s) of Target Chain>


$$$$

  Mrv0541 11241420052D          

 23 25  0  0  0  0            999 V2000
   12.0856   -2.9999    0.0000 C   0  0  0  0  0  0  0  0  0  0  0  0
   12.0844   -3.8272    0.0000 C   0  0  0  0  0  0  0  0  0  0  0  0
   12.7993   -4.2401    0.0000 N   0  0  0  0  0  0  0  0  0  0  0  0
   12.7974   -2.5871    0.0000 C   0  0  0  0  0  0  0  0  0  0  0  0
   11.3697   -4.2391    0.0000 O   0  0  0  0  0  0  0  0  0  0  0  0
   10.6555   -3.8261    0.0000 C   0  0  0  0  0  0  0  0  0  0  0  0
   11.3711   -2.5875    0.0000 C   0  0  0  0  0  0  0  0  0  0  0  0
   11.3743   -1.7616    0.0000 C   0  0  0  0  0  0  0  0  0  0  0  0
   10.6606   -1.3494    0.0000 N   0  0  0  0  0  0  0  0  0  0  0  0
    9.9453   -1.7621    0.0000 C   0  0  0  0  0  0  0  0  0  0  0  0
    9.9481   -2.5913    0.0000 N   0  0  0  0  0  0  0  0  0  0  0  0
   10.6624   -2.9999    0.0000 C   0  0  0  0  0  0  0  0  0  0  0  0
   13.5128   -2.9962    0.0000 C   0  0  0  0  0  0  0  0  0  0  0  0
   13.5131   -3.8272    0.0000 C   0  0  0  0  0  0  0  0  0  0  0  0
   14.3034   -4.0838    0.0000 S   0  0  0  0  0  0  0  0  0  0  0  0
   14.7917   -3.4114    0.0000 C   0  0  0  0  0  0  0  0  0  0  0  0
   14.3030   -2.7392    0.0000 N   0  0  0  0  0  0  0  0  0  0  0  0
   15.6167   -3.4111    0.0000 N   0  0  0  0  0  0  0  0  0  0  0  0
   16.0290   -2.6964    0.0000 C   0  0  0  0  0  0  0  0  0  0  0  0
   16.8540   -2.6961    0.0000 O   0  0  0  0  0  0  0  0  0  0  0  0
   15.6162   -1.9822    0.0000 N   0  0  0  0  0  0  0  0  0  0  0  0
   16.0285   -1.2675    0.0000 C   0  0  0  0  0  0  0  0  0  0  0  0
   15.6158   -0.5532    0.0000 C   0  0  0  0  0  0  0  0  0  0  0  0
  1  2  2  0  0  0  0
  2  3  1  0  0  0  0
  3 14  2  0  0  0  0
 13  4  2  0  0  0  0
  4  1  1  0  0  0  0
  2  5  1  0  0  0  0
  5  6  1  0  0  0  0
  1  7  1  0  0  0  0
  7  8  2  0  0  0  0
  8  9  1  0  0  0  0
  9 10  2  0  0  0  0
 10 11  1  0  0  0  0
 11 12  2  0  0  0  0
 12  7  1  0  0  0  0
 13 14  1  0  0  0  0
 14 15  1  0  0  0  0
 15 16  1  0  0  0  0
 16 17  2  0  0  0  0
 17 13  1  0  0  0  0
 16 18  1  0  0  0  0
 18 19  1  0  0  0  0
 19 20  2  0  0  0  0
 19 21  1  0  0  0  0
 21 22  1  0  0  0  0
 22 23  1  0  0  0  0
M  END
> <From> 
www.bindingDB.org

> <BindingDB Reactant_set_id>
51091634

> <Ligand InChI>
InChI=1S/C14H14N6O2S/c1-3-17-13(21)20-14-18-10-4-9(8-5-15-7-16-6-8)11(22-2)19-12(10)23-14/h4-7H,3H2,1-2H3,(H2,17,18,20,21)

> <Ligand InChI Key>
DWMVVFDZEYIPJT-UHFFFAOYSA-N

> <BindingDB MonomerID>
50447322

> <BindingDB Ligand Name>
CHEMBL3114212

> <Target Name Assigned by Curator or DataSource>
DNA gyrase subunit B

> <Target Source Organism According to Curator or DataSource>


> <Ki (nM)>


> <IC50 (nM)>
 22

> <Kd (nM)>


> <EC50 (nM)>


> <kon (M-1-s-1)>


> <koff (s-1)>


> <pH>


> <Temp C>


> <Curation/DataSource>
ChEMBL

> <Article DOI>
10.1016/j.bmcl.2013.12.080

> <PMID>
24405701

> <PubChem AID>


> <Patent Number>


> <Authors>
Kale, RR; Kale, MG; Waterson, D; Raichurkar, A; Hameed, SP; Manjunatha, MR; Kishore Reddy, BK; Malolanarasimhan, K; Shinde, V; Koushik, K; Jena, LK; Menasinakai, S; Humnabadkar, V; Madhavapeddi, P; Basavarajappa, H; Sharma, S; Nandishaiah, R; Mahesh Kumar, KN; Ganguly, S; Ahuja, V; Gaonkar, S; Naveen Kumar, CN; Ogg, D; Boriack-Sjodin, PA; Sambandamurthy, VK; de Sousa, SM; Ghorpade, SR

> <Institution>
AstraZeneca

> <Link to Ligand in BindingDB>
http://www.bindingdb.org/bind/chemsearch/marvin/MolStructure.jsp?monomerid=50447322

> <Link to Ligand-Target Pair in BindingDB>
http://www.bindingdb.org/jsp/dbsearch/PrimarySearch_ki.jsp?energyterm=kJ/mole&tag=pol&polymerid=50006452&target=DNA+gyrase+subunit+B&column=ki&startPg=0&Increment=50&submit=Search

> <Link to Ligand-Target Pair in BindingDB>
http://www.bindingdb.org/jsp/dbsearch/PrimarySearch_ki.jsp?energyterm=kJ/mole&tag=r21&monomerid=50447322&enzyme=DNA+gyrase+subunit+B&column=ki&startPg=0&Increment=50&submit=Search

> <Ligand HET ID in PDB>


> <PDB ID(s) for Ligand-Target Complex>


> <PubChem CID>
59352810

> <PubChem SID>
194945218

> <ChEBI ID of Ligand>


> <ChEMBL ID of Ligand>
CHEMBL3114212

> <DrugBank ID of Ligand>


> <IUPHAR_GRAC ID of Ligand>


> <KEGG ID of Ligand>


> <ZINC ID of Ligand>


> <Number of Protein Chains in Target (>1 implies a multichain complex)>
1

> <BindingDB Target Chain Sequence>
MAAQKNNAPKEYGADSITILEGLEAVRKRPGMYIGSTGERGLHHLIWEVVDNAVDEAMAGFATRVDVKIHADGSVEVRDDGRGIPVEMHATGMPTIDVVMTQLHAGGKFDGETYAVSGGLHGVGVSVVNALSTRLEATVLRDGYEWFQYYDRSVPGKLKQGGETKETGTTIRFWADPEIFETTDYNFETVARRLQEMAFLNKGLTIELTDERVTAEEVVDDVVKDTAEAPKTADEKAAEATGPSKVKHRVFHYPGGLVDYVKHINRTKTPIQQSIIDFDGKGPGHEVEIAMQWNAGYSESVHTFANTINTHEGGTHEEGFRAALTSVVNRYAKDKKLLKDKDPNLTGDDIREGLAAVISVKVAEPQFEGQTKTKLGNTEVKSFVQKICNEQLQHWFEANPAEAKTVVNKAVSSAQARIAARKARELVRRKSATDIGGLPGKLADCRSTDPSKSELYVVEGDSAGGSAKSGRDSMFQAILPLRGKIINVEKARIDRVLKNTEVQSIITALGTGIHDEFDISKLRYHKIVLMADADVDGQHISTLLLTLLFRFMKPLVENGHIFLAQPPLYKLKWQRSEPEFAYSDRERDGLLEAGRAAGKKINVDDGIQRYKGLGEMDAKELWETTMDPSVRVLRQVTLDDAAAADELFSILMGEDVEARRSFITRNAKDVRFLDV

> <PDB ID(s) of Target Chain>
4BAE

> <UniProt (SwissProt) Recommended Name of Target Chain>
DNA gyrase subunit B

> <UniProt (SwissProt) Entry Name of Target Chain>
GYRB_MYCSM

> <UniProt (SwissProt) Primary ID of Target Chain>
P0C559

> <UniProt (SwissProt) Secondary ID(s) of Target Chain>
P48355,Q59555

> <UniProt (SwissProt) Alternative ID(s) of Target Chain>


> <UniProt (TrEMBL) Submitted Name of Target Chain>


> <UniProt (TrEMBL) Entry Name of Target Chain>


> <UniProt (TrEMBL) Primary ID of Target Chain>


> <UniProt (TrEMBL) Secondary ID(s) of Target Chain>


> <UniProt (TrEMBL) Alternative ID(s) of Target Chain>


$$$$

  Mrv0541 11241412072D          

 31 34  0  0  0  0            999 V2000
   18.9414  -10.7569    0.0000 C   0  0  0  0  0  0  0  0  0  0  0  0
   19.6578  -10.3435    0.0000 C   0  0  0  0  0  0  0  0  0  0  0  0
   19.6550   -9.5130    0.0000 C   0  0  0  0  0  0  0  0  0  0  0  0
   18.9396   -9.1039    0.0000 N   0  0  0  0  0  0  0  0  0  0  0  0
   18.2266  -10.3440    0.0000 C   0  0  0  0  0  0  0  0  0  0  0  0
   18.2278   -9.5151    0.0000 C   0  0  0  0  0  0  0  0  0  0  0  0
   17.4398   -9.2577    0.0000 N   0  0  0  0  0  0  0  0  0  0  0  0
   16.9516   -9.9276    0.0000 C   0  0  0  0  0  0  0  0  0  0  0  0
   17.4378  -10.5989    0.0000 C   0  0  0  0  0  0  0  0  0  0  0  0
   20.3694  -10.7541    0.0000 C   0  0  0  0  0  0  0  0  0  0  0  0
   20.3694  -11.5803    0.0000 C   0  0  0  0  0  0  0  0  0  0  0  0
   21.0836  -11.9916    0.0000 N   0  0  0  0  0  0  0  0  0  0  0  0
   21.7984  -11.5779    0.0000 C   0  0  0  0  0  0  0  0  0  0  0  0
   21.7945  -10.7486    0.0000 C   0  0  0  0  0  0  0  0  0  0  0  0
   21.0796  -10.3410    0.0000 C   0  0  0  0  0  0  0  0  0  0  0  0
   18.9435  -11.5781    0.0000 N   0  0  0  0  0  0  0  0  0  0  0  0
   18.2760  -12.0629    0.0000 C   0  0  0  0  0  0  0  0  0  0  0  0
   18.5308  -12.8476    0.0000 C   0  0  0  0  0  0  0  0  0  0  0  0
   19.3558  -12.8478    0.0000 C   0  0  0  0  0  0  0  0  0  0  0  0
   19.6108  -12.0632    0.0000 N   0  0  0  0  0  0  0  0  0  0  0  0
   19.8406  -13.5153    0.0000 C   0  0  0  0  0  0  0  0  0  0  0  0
   19.5049  -14.2689    0.0000 F   0  0  0  0  0  0  0  0  0  0  0  0
   20.6611  -13.4292    0.0000 F   0  0  0  0  0  0  0  0  0  0  0  0
   20.2458  -14.2250    0.0000 F   0  0  0  0  0  0  0  0  0  0  0  0
   16.1266   -9.9264    0.0000 C   0  0  0  0  0  0  0  0  0  0  0  0
   15.7151   -9.2114    0.0000 N   0  0  0  0  0  0  0  0  0  0  0  0
   15.7130  -10.6403    0.0000 O   0  0  0  0  0  0  0  0  0  0  0  0
   14.8901   -9.2102    0.0000 C   0  0  0  0  0  0  0  0  0  0  0  0
   14.4766   -9.9240    0.0000 C   0  0  0  0  0  0  0  0  0  0  0  0
   22.5025  -10.3308    0.0000 C   0  0  0  0  0  0  0  0  0  0  0  0
   23.2148   -9.9147    0.0000 N   0  0  0  0  0  0  0  0  0  0  0  0
 15 10  2  0  0  0  0
  2 10  1  0  0  0  0
 16 17  1  0  0  0  0
  3  4  1  0  0  0  0
  6  7  1  0  0  0  0
  7  8  1  0  0  0  0
  8  9  2  0  0  0  0
  9  5  1  0  0  0  0
 17 18  2  0  0  0  0
 18 19  1  0  0  0  0
 19 20  2  0  0  0  0
 20 16  1  0  0  0  0
  1 16  1  0  0  0  0
  4  6  2  0  0  0  0
 19 21  1  0  0  0  0
  5  6  1  0  0  0  0
 21 22  1  0  0  0  0
 10 11  1  0  0  0  0
 21 23  1  0  0  0  0
  1  2  1  0  0  0  0
 21 24  1  0  0  0  0
 11 12  2  0  0  0  0
  8 25  1  0  0  0  0
  5  1  2  0  0  0  0
 25 26  1  0  0  0  0
 12 13  1  0  0  0  0
 25 27  2  0  0  0  0
  2  3  2  0  0  0  0
 26 28  1  0  0  0  0
 13 14  2  0  0  0  0
 28 29  1  0  0  0  0
 14 15  1  0  0  0  0
 30 31  3  0  0  0  0
 14 30  1  0  0  0  0
M  END
> <From> 
www.bindingDB.org

> <BindingDB Reactant_set_id>
50945996

> <Ligand InChI>
InChI=1S/C20H14F3N7O/c1-2-26-19(31)15-6-13-17(30-4-3-16(29-30)20(21,22)23)14(10-27-18(13)28-15)12-5-11(7-24)8-25-9-12/h3-6,8-10H,2H2,1H3,(H,26,31)(H,27,28)

> <Ligand InChI Key>
CCBXSPDGKGSKNC-UHFFFAOYSA-N

> <BindingDB MonomerID>
50388099

> <BindingDB Ligand Name>
CHEMBL2059377

> <Target Name Assigned by Curator or DataSource>
DNA Gyrase Subunit B

> <Target Source Organism According to Curator or DataSource>
Staphylococcus aureus

> <Ki (nM)>


> <IC50 (nM)>
 23

> <Kd (nM)>


> <EC50 (nM)>


> <kon (M-1-s-1)>


> <koff (s-1)>


> <pH>


> <Temp C>


> <Curation/DataSource>
ChEMBL

> <Article DOI>
10.1016/j.bmcl.2012.05.128

> <PMID>
22814212

> <PubChem AID>


> <Patent Number>


> <Authors>
Manchester, JI; Dussault, DD; Rose, JA; Boriack-Sjodin, PA; Uria-Nickelsen, M; Ioannidis, G; Bist, S; Fleming, P; Hull, KG

> <Institution>
AstraZeneca

> <Link to Ligand in BindingDB>
http://www.bindingdb.org/bind/chemsearch/marvin/MolStructure.jsp?monomerid=50388099

> <Link to Ligand-Target Pair in BindingDB>
http://www.bindingdb.org/jsp/dbsearch/PrimarySearch_ki.jsp?energyterm=kJ/mole&tag=pol&polymerid=2626&target=DNA+Gyrase+Subunit+B&column=ki&startPg=0&Increment=50&submit=Search

> <Link to Ligand-Target Pair in BindingDB>
http://www.bindingdb.org/jsp/dbsearch/PrimarySearch_ki.jsp?energyterm=kJ/mole&tag=r21&monomerid=50388099&enzyme=DNA+Gyrase+Subunit+B&column=ki&startPg=0&Increment=50&submit=Search

> <Ligand HET ID in PDB>


> <PDB ID(s) for Ligand-Target Complex>


> <PubChem CID>
62705860

> <PubChem SID>
160867182

> <ChEBI ID of Ligand>


> <ChEMBL ID of Ligand>
CHEMBL2059377

> <DrugBank ID of Ligand>


> <IUPHAR_GRAC ID of Ligand>


> <KEGG ID of Ligand>


> <ZINC ID of Ligand>
ZINC84687919

> <Number of Protein Chains in Target (>1 implies a multichain complex)>
1

> <BindingDB Target Chain Sequence>
MVTALSDVNNTDNYGAGQIQVLEGLEAVRKRPGMYIGSTSERGLHHLVWEIVDNSIDEALAGYANQIEVVIEKDNWIKVTDNGRGIPVDIQEKMGRPAVEVILTVLHAGGKFGGGGYKVSGGLHGVGSSVVNALSQDLEVYVHRNETIYHQAYKKGVPQFDLKEVGTTDKTGTVIRFKADGEIFTETTVYNYETLQQRIRELAFLNKGIQITLRDERDEENVREDSYHYEGGIKSYVELLNENKEPIHDEPIYIHQSKDDIEVEIAIQYNSGYATNLLTYANNIHTYEGGTHEDGFKRALTRVLNSYGLSSKIMKEEKDRLSGEDTREGMTAIISIKHGDPQFEGQTKTKLGNSEVRQVVDKLFSEHFERFLYENPQVARTVVEKGIMAARARVAAKKAREVTRRKSALDVASLPGKLADCSSKSPEECEIFLVEGDSAGGSTKSGRDSRTQAILPLRGKILNVEKARLDRILNNNEIRQMITAFGTGIGGDFDLAKARYHKIVIMTDADVDGAHIRTLLLTFFYRFMRPLIEAGYVYIAQPPLYKLTQGKQKYYVYNDRELDKLKSELNPTPKWSIARYKGLGEMNADQLWETTMNPEHRALLQVKLEDAIEADQTFEMLMGDVVENRRQFIEDNAVYANLDF

> <PDB ID(s) of Target Chain>


> <UniProt (SwissProt) Recommended Name of Target Chain>
DNA gyrase subunit B

> <UniProt (SwissProt) Entry Name of Target Chain>
GYRB_STAAU

> <UniProt (SwissProt) Primary ID of Target Chain>
P0A0K8

> <UniProt (SwissProt) Secondary ID(s) of Target Chain>
P20832

> <UniProt (SwissProt) Alternative ID(s) of Target Chain>


> <UniProt (TrEMBL) Submitted Name of Target Chain>


> <UniProt (TrEMBL) Entry Name of Target Chain>


> <UniProt (TrEMBL) Primary ID of Target Chain>


> <UniProt (TrEMBL) Secondary ID(s) of Target Chain>


> <UniProt (TrEMBL) Alternative ID(s) of Target Chain>


$$$$

  Mrv0541 11241420052D          

 25 27  0  0  0  0            999 V2000
    3.0860   -3.1666    0.0000 C   0  0  0  0  0  0  0  0  0  0  0  0
    3.0848   -3.9938    0.0000 C   0  0  0  0  0  0  0  0  0  0  0  0
    3.7996   -4.4067    0.0000 N   0  0  0  0  0  0  0  0  0  0  0  0
    3.7978   -2.7538    0.0000 C   0  0  0  0  0  0  0  0  0  0  0  0
    2.3715   -2.7542    0.0000 C   0  0  0  0  0  0  0  0  0  0  0  0
    2.3747   -1.9283    0.0000 C   0  0  0  0  0  0  0  0  0  0  0  0
    1.6610   -1.5161    0.0000 N   0  0  0  0  0  0  0  0  0  0  0  0
    0.9456   -1.9288    0.0000 C   0  0  0  0  0  0  0  0  0  0  0  0
    0.9484   -2.7580    0.0000 N   0  0  0  0  0  0  0  0  0  0  0  0
    1.6628   -3.1664    0.0000 C   0  0  0  0  0  0  0  0  0  0  0  0
    4.5131   -3.1629    0.0000 C   0  0  0  0  0  0  0  0  0  0  0  0
    4.5133   -3.9938    0.0000 C   0  0  0  0  0  0  0  0  0  0  0  0
    5.3038   -4.2505    0.0000 S   0  0  0  0  0  0  0  0  0  0  0  0
    5.7921   -3.5780    0.0000 C   0  0  0  0  0  0  0  0  0  0  0  0
    5.3034   -2.9059    0.0000 N   0  0  0  0  0  0  0  0  0  0  0  0
    6.6171   -3.5777    0.0000 N   0  0  0  0  0  0  0  0  0  0  0  0
    7.0294   -2.8631    0.0000 C   0  0  0  0  0  0  0  0  0  0  0  0
    7.8543   -2.8628    0.0000 O   0  0  0  0  0  0  0  0  0  0  0  0
    6.6166   -2.1489    0.0000 N   0  0  0  0  0  0  0  0  0  0  0  0
    7.0289   -1.4342    0.0000 C   0  0  0  0  0  0  0  0  0  0  0  0
    6.6161   -0.7199    0.0000 C   0  0  0  0  0  0  0  0  0  0  0  0
    2.3700   -4.4057    0.0000 O   0  0  0  0  0  0  0  0  0  0  0  0
    3.7998   -5.2316    0.0000 C   0  0  0  0  0  0  0  0  0  0  0  0
    3.0855   -5.6443    0.0000 C   0  0  0  0  0  0  0  0  0  0  0  0
    4.5144   -5.6440    0.0000 C   0  0  0  0  0  0  0  0  0  0  0  0
  1  2  1  0  0  0  0
  2  3  1  0  0  0  0
  3 12  1  0  0  0  0
 11  4  1  0  0  0  0
  4  1  2  0  0  0  0
  1  5  1  0  0  0  0
  5  6  2  0  0  0  0
  6  7  1  0  0  0  0
  7  8  2  0  0  0  0
  8  9  1  0  0  0  0
  9 10  2  0  0  0  0
 10  5  1  0  0  0  0
 11 12  2  0  0  0  0
 12 13  1  0  0  0  0
 13 14  1  0  0  0  0
 14 15  2  0  0  0  0
 15 11  1  0  0  0  0
 14 16  1  0  0  0  0
 16 17  1  0  0  0  0
 17 18  2  0  0  0  0
 17 19  1  0  0  0  0
 19 20  1  0  0  0  0
 20 21  1  0  0  0  0
  2 22  2  0  0  0  0
  3 23  1  0  0  0  0
 23 24  1  0  0  0  0
 23 25  1  0  0  0  0
M  END
> <From> 
www.bindingDB.org

> <BindingDB Reactant_set_id>
51091620

> <Ligand InChI>
InChI=1S/C16H18N6O2S/c1-4-19-15(24)21-16-20-12-5-11(10-6-17-8-18-7-10)13(23)22(9(2)3)14(12)25-16/h5-9H,4H2,1-3H3,(H2,19,20,21,24)

> <Ligand InChI Key>
UCIJIBKSJFYGEO-UHFFFAOYSA-N

> <BindingDB MonomerID>
50447308

> <BindingDB Ligand Name>
CHEMBL3114197

> <Target Name Assigned by Curator or DataSource>
DNA gyrase subunit B

> <Target Source Organism According to Curator or DataSource>


> <Ki (nM)>


> <IC50 (nM)>
 23

> <Kd (nM)>


> <EC50 (nM)>


> <kon (M-1-s-1)>


> <koff (s-1)>


> <pH>


> <Temp C>


> <Curation/DataSource>
ChEMBL

> <Article DOI>
10.1016/j.bmcl.2013.12.080

> <PMID>
24405701

> <PubChem AID>


> <Patent Number>


> <Authors>
Kale, RR; Kale, MG; Waterson, D; Raichurkar, A; Hameed, SP; Manjunatha, MR; Kishore Reddy, BK; Malolanarasimhan, K; Shinde, V; Koushik, K; Jena, LK; Menasinakai, S; Humnabadkar, V; Madhavapeddi, P; Basavarajappa, H; Sharma, S; Nandishaiah, R; Mahesh Kumar, KN; Ganguly, S; Ahuja, V; Gaonkar, S; Naveen Kumar, CN; Ogg, D; Boriack-Sjodin, PA; Sambandamurthy, VK; de Sousa, SM; Ghorpade, SR

> <Institution>
AstraZeneca

> <Link to Ligand in BindingDB>
http://www.bindingdb.org/bind/chemsearch/marvin/MolStructure.jsp?monomerid=50447308

> <Link to Ligand-Target Pair in BindingDB>
http://www.bindingdb.org/jsp/dbsearch/PrimarySearch_ki.jsp?energyterm=kJ/mole&tag=pol&polymerid=50006452&target=DNA+gyrase+subunit+B&column=ki&startPg=0&Increment=50&submit=Search

> <Link to Ligand-Target Pair in BindingDB>
http://www.bindingdb.org/jsp/dbsearch/PrimarySearch_ki.jsp?energyterm=kJ/mole&tag=r21&monomerid=50447308&enzyme=DNA+gyrase+subunit+B&column=ki&startPg=0&Increment=50&submit=Search

> <Ligand HET ID in PDB>


> <PDB ID(s) for Ligand-Target Complex>


> <PubChem CID>
76328604

> <PubChem SID>
194945204

> <ChEBI ID of Ligand>


> <ChEMBL ID of Ligand>
CHEMBL3114197

> <DrugBank ID of Ligand>


> <IUPHAR_GRAC ID of Ligand>


> <KEGG ID of Ligand>


> <ZINC ID of Ligand>


> <Number of Protein Chains in Target (>1 implies a multichain complex)>
1

> <BindingDB Target Chain Sequence>
MAAQKNNAPKEYGADSITILEGLEAVRKRPGMYIGSTGERGLHHLIWEVVDNAVDEAMAGFATRVDVKIHADGSVEVRDDGRGIPVEMHATGMPTIDVVMTQLHAGGKFDGETYAVSGGLHGVGVSVVNALSTRLEATVLRDGYEWFQYYDRSVPGKLKQGGETKETGTTIRFWADPEIFETTDYNFETVARRLQEMAFLNKGLTIELTDERVTAEEVVDDVVKDTAEAPKTADEKAAEATGPSKVKHRVFHYPGGLVDYVKHINRTKTPIQQSIIDFDGKGPGHEVEIAMQWNAGYSESVHTFANTINTHEGGTHEEGFRAALTSVVNRYAKDKKLLKDKDPNLTGDDIREGLAAVISVKVAEPQFEGQTKTKLGNTEVKSFVQKICNEQLQHWFEANPAEAKTVVNKAVSSAQARIAARKARELVRRKSATDIGGLPGKLADCRSTDPSKSELYVVEGDSAGGSAKSGRDSMFQAILPLRGKIINVEKARIDRVLKNTEVQSIITALGTGIHDEFDISKLRYHKIVLMADADVDGQHISTLLLTLLFRFMKPLVENGHIFLAQPPLYKLKWQRSEPEFAYSDRERDGLLEAGRAAGKKINVDDGIQRYKGLGEMDAKELWETTMDPSVRVLRQVTLDDAAAADELFSILMGEDVEARRSFITRNAKDVRFLDV

> <PDB ID(s) of Target Chain>
4BAE

> <UniProt (SwissProt) Recommended Name of Target Chain>
DNA gyrase subunit B

> <UniProt (SwissProt) Entry Name of Target Chain>
GYRB_MYCSM

> <UniProt (SwissProt) Primary ID of Target Chain>
P0C559

> <UniProt (SwissProt) Secondary ID(s) of Target Chain>
P48355,Q59555

> <UniProt (SwissProt) Alternative ID(s) of Target Chain>


> <UniProt (TrEMBL) Submitted Name of Target Chain>


> <UniProt (TrEMBL) Entry Name of Target Chain>


> <UniProt (TrEMBL) Primary ID of Target Chain>


> <UniProt (TrEMBL) Secondary ID(s) of Target Chain>


> <UniProt (TrEMBL) Alternative ID(s) of Target Chain>


$$$$

  Mrv0541 11241420052D          

 27 29  0  0  0  0            999 V2000
   19.3192   -3.3541    0.0000 C   0  0  0  0  0  0  0  0  0  0  0  0
   19.3181   -4.1815    0.0000 C   0  0  0  0  0  0  0  0  0  0  0  0
   20.0329   -4.5944    0.0000 N   0  0  0  0  0  0  0  0  0  0  0  0
   20.0312   -2.9413    0.0000 C   0  0  0  0  0  0  0  0  0  0  0  0
   18.6047   -2.9418    0.0000 C   0  0  0  0  0  0  0  0  0  0  0  0
   18.6080   -2.1158    0.0000 C   0  0  0  0  0  0  0  0  0  0  0  0
   17.8943   -1.7036    0.0000 N   0  0  0  0  0  0  0  0  0  0  0  0
   17.1789   -2.1163    0.0000 C   0  0  0  0  0  0  0  0  0  0  0  0
   17.1817   -2.9456    0.0000 C   0  0  0  0  0  0  0  0  0  0  0  0
   17.8961   -3.3541    0.0000 C   0  0  0  0  0  0  0  0  0  0  0  0
   20.7465   -3.3505    0.0000 C   0  0  0  0  0  0  0  0  0  0  0  0
   20.7467   -4.1816    0.0000 C   0  0  0  0  0  0  0  0  0  0  0  0
   21.5372   -4.4381    0.0000 S   0  0  0  0  0  0  0  0  0  0  0  0
   22.0255   -3.7656    0.0000 C   0  0  0  0  0  0  0  0  0  0  0  0
   21.5368   -3.0935    0.0000 N   0  0  0  0  0  0  0  0  0  0  0  0
   22.8505   -3.7653    0.0000 N   0  0  0  0  0  0  0  0  0  0  0  0
   23.2628   -3.0507    0.0000 C   0  0  0  0  0  0  0  0  0  0  0  0
   24.0878   -3.0505    0.0000 O   0  0  0  0  0  0  0  0  0  0  0  0
   22.8500   -2.3364    0.0000 N   0  0  0  0  0  0  0  0  0  0  0  0
   23.2623   -1.6217    0.0000 C   0  0  0  0  0  0  0  0  0  0  0  0
   22.8495   -0.9075    0.0000 C   0  0  0  0  0  0  0  0  0  0  0  0
   18.6034   -4.5935    0.0000 O   0  0  0  0  0  0  0  0  0  0  0  0
   20.0332   -5.4194    0.0000 C   0  0  0  0  0  0  0  0  0  0  0  0
   19.3188   -5.8321    0.0000 C   0  0  0  0  0  0  0  0  0  0  0  0
   20.7478   -5.8317    0.0000 C   0  0  0  0  0  0  0  0  0  0  0  0
   16.4637   -1.7049    0.0000 O   0  0  0  0  0  0  0  0  0  0  0  0
   16.4625   -0.8799    0.0000 C   0  0  0  0  0  0  0  0  0  0  0  0
  1  2  1  0  0  0  0
  2  3  1  0  0  0  0
  3 12  1  0  0  0  0
 11  4  1  0  0  0  0
  4  1  2  0  0  0  0
  1  5  1  0  0  0  0
  5  6  2  0  0  0  0
  6  7  1  0  0  0  0
  7  8  2  0  0  0  0
  8  9  1  0  0  0  0
  9 10  2  0  0  0  0
 10  5  1  0  0  0  0
 11 12  2  0  0  0  0
 12 13  1  0  0  0  0
 13 14  1  0  0  0  0
 14 15  2  0  0  0  0
 15 11  1  0  0  0  0
 14 16  1  0  0  0  0
 16 17  1  0  0  0  0
 17 18  2  0  0  0  0
 17 19  1  0  0  0  0
 19 20  1  0  0  0  0
 20 21  1  0  0  0  0
  2 22  2  0  0  0  0
  3 23  1  0  0  0  0
 23 24  1  0  0  0  0
 23 25  1  0  0  0  0
  8 26  1  0  0  0  0
 26 27  1  0  0  0  0
M  END
> <From> 
www.bindingDB.org

> <BindingDB Reactant_set_id>
51091618

> <Ligand InChI>
InChI=1S/C18H21N5O3S/c1-5-19-17(25)22-18-21-13-8-12(11-6-7-14(26-4)20-9-11)15(24)23(10(2)3)16(13)27-18/h6-10H,5H2,1-4H3,(H2,19,21,22,25)

> <Ligand InChI Key>
IFJKXJLNGMWOHT-UHFFFAOYSA-N

> <BindingDB MonomerID>
50447306

> <BindingDB Ligand Name>
CHEMBL3114199

> <Target Name Assigned by Curator or DataSource>
DNA gyrase subunit B

> <Target Source Organism According to Curator or DataSource>


> <Ki (nM)>


> <IC50 (nM)>
 23

> <Kd (nM)>


> <EC50 (nM)>


> <kon (M-1-s-1)>


> <koff (s-1)>


> <pH>


> <Temp C>


> <Curation/DataSource>
ChEMBL

> <Article DOI>
10.1016/j.bmcl.2013.12.080

> <PMID>
24405701

> <PubChem AID>


> <Patent Number>


> <Authors>
Kale, RR; Kale, MG; Waterson, D; Raichurkar, A; Hameed, SP; Manjunatha, MR; Kishore Reddy, BK; Malolanarasimhan, K; Shinde, V; Koushik, K; Jena, LK; Menasinakai, S; Humnabadkar, V; Madhavapeddi, P; Basavarajappa, H; Sharma, S; Nandishaiah, R; Mahesh Kumar, KN; Ganguly, S; Ahuja, V; Gaonkar, S; Naveen Kumar, CN; Ogg, D; Boriack-Sjodin, PA; Sambandamurthy, VK; de Sousa, SM; Ghorpade, SR

> <Institution>
AstraZeneca

> <Link to Ligand in BindingDB>
http://www.bindingdb.org/bind/chemsearch/marvin/MolStructure.jsp?monomerid=50447306

> <Link to Ligand-Target Pair in BindingDB>
http://www.bindingdb.org/jsp/dbsearch/PrimarySearch_ki.jsp?energyterm=kJ/mole&tag=pol&polymerid=50006452&target=DNA+gyrase+subunit+B&column=ki&startPg=0&Increment=50&submit=Search

> <Link to Ligand-Target Pair in BindingDB>
http://www.bindingdb.org/jsp/dbsearch/PrimarySearch_ki.jsp?energyterm=kJ/mole&tag=r21&monomerid=50447306&enzyme=DNA+gyrase+subunit+B&column=ki&startPg=0&Increment=50&submit=Search

> <Ligand HET ID in PDB>


> <PDB ID(s) for Ligand-Target Complex>


> <PubChem CID>
76317726

> <PubChem SID>
194945202

> <ChEBI ID of Ligand>


> <ChEMBL ID of Ligand>
CHEMBL3114199

> <DrugBank ID of Ligand>


> <IUPHAR_GRAC ID of Ligand>


> <KEGG ID of Ligand>


> <ZINC ID of Ligand>


> <Number of Protein Chains in Target (>1 implies a multichain complex)>
1

> <BindingDB Target Chain Sequence>
MAAQKNNAPKEYGADSITILEGLEAVRKRPGMYIGSTGERGLHHLIWEVVDNAVDEAMAGFATRVDVKIHADGSVEVRDDGRGIPVEMHATGMPTIDVVMTQLHAGGKFDGETYAVSGGLHGVGVSVVNALSTRLEATVLRDGYEWFQYYDRSVPGKLKQGGETKETGTTIRFWADPEIFETTDYNFETVARRLQEMAFLNKGLTIELTDERVTAEEVVDDVVKDTAEAPKTADEKAAEATGPSKVKHRVFHYPGGLVDYVKHINRTKTPIQQSIIDFDGKGPGHEVEIAMQWNAGYSESVHTFANTINTHEGGTHEEGFRAALTSVVNRYAKDKKLLKDKDPNLTGDDIREGLAAVISVKVAEPQFEGQTKTKLGNTEVKSFVQKICNEQLQHWFEANPAEAKTVVNKAVSSAQARIAARKARELVRRKSATDIGGLPGKLADCRSTDPSKSELYVVEGDSAGGSAKSGRDSMFQAILPLRGKIINVEKARIDRVLKNTEVQSIITALGTGIHDEFDISKLRYHKIVLMADADVDGQHISTLLLTLLFRFMKPLVENGHIFLAQPPLYKLKWQRSEPEFAYSDRERDGLLEAGRAAGKKINVDDGIQRYKGLGEMDAKELWETTMDPSVRVLRQVTLDDAAAADELFSILMGEDVEARRSFITRNAKDVRFLDV

> <PDB ID(s) of Target Chain>
4BAE

> <UniProt (SwissProt) Recommended Name of Target Chain>
DNA gyrase subunit B

> <UniProt (SwissProt) Entry Name of Target Chain>
GYRB_MYCSM

> <UniProt (SwissProt) Primary ID of Target Chain>
P0C559

> <UniProt (SwissProt) Secondary ID(s) of Target Chain>
P48355,Q59555

> <UniProt (SwissProt) Alternative ID(s) of Target Chain>


> <UniProt (TrEMBL) Submitted Name of Target Chain>


> <UniProt (TrEMBL) Entry Name of Target Chain>


> <UniProt (TrEMBL) Primary ID of Target Chain>


> <UniProt (TrEMBL) Secondary ID(s) of Target Chain>


> <UniProt (TrEMBL) Alternative ID(s) of Target Chain>


$$$$

  SciTegic12201612272D

 27 30  0  0  0  0            999 V2000
    0.2917   -0.7475    0.0000 C   0  0
    0.2917    0.7475    0.0000 C   0  0
   -1.0028    1.5132    0.0000 C   0  0
   -2.3155    0.7475    0.0000 C   0  0
   -2.3155   -0.7475    0.0000 C   0  0
   -1.0028   -1.5132    0.0000 N   0  0
    2.5889    0.0182    0.0000 N   0  0
    1.7138   -1.2033    0.0000 N   0  0
    1.7138    1.2033    0.0000 C   0  0
   -3.3560   -1.3452    0.0000 O   0  0
   -0.9971   -3.0138    0.0000 C   0  0
   -2.2935   -3.7700    0.0000 C   0  0
   -2.2889   -4.9699    0.0000 C   0  0
    3.6243    2.9682    0.0000 S   0  0
    3.7308    4.4645    0.0000 C   0  0
    2.3406    5.0280    0.0000 N   0  0
    1.3751    3.8801    0.0000 C   0  0
    2.1749    2.6315    0.0000 C   0  0
    6.3724    4.6552    0.0000 C   0  0
    5.0044    5.2582    0.0000 C   0  0
    4.8363    6.7505    0.0000 C   0  0
    6.0460    7.6374    0.0000 C   0  0
    7.4189    7.0332    0.0000 C   0  0
    7.5821    5.5421    0.0000 N   0  0
    8.6311    7.9182    0.0000 C   0  0
    9.7288    7.4333    0.0000 C   0  0
    8.5026    9.1113    0.0000 C   0  0
  1  2  2  0
  2  3  1  0
  3  4  2  0
  4  5  1  0
  5  6  1  0
  1  6  1  0
  7  8  1  0
  7  9  2  0
  1  8  1  0
  2  9  1  0
  5 10  2  0
 11 12  1  0
 12 13  1  0
  6 11  1  0
 14 15  1  0
 15 16  2  0
 16 17  1  0
 17 18  2  0
 14 18  1  0
 19 20  1  0
 20 21  2  0
 21 22  1  0
 22 23  2  0
 23 24  1  0
 19 24  2  0
 25 26  1  0
 23 25  1  0
 15 20  1  0
  9 18  1  0
 25 27  1  0
M  END
> <From> 
www.bindingDB.org

> <BindingDB Reactant_set_id>
50498676

> <Ligand InChI>
InChI=1S/C20H21N5OS/c1-4-9-25-17(26)8-6-14-18(23-24-19(14)25)16-11-22-20(27-16)13-5-7-15(12(2)3)21-10-13/h5-8,10-12H,4,9H2,1-3H3,(H,23,24)

> <Ligand InChI Key>
DOJFNEFKIDVUSP-UHFFFAOYSA-N

> <BindingDB MonomerID>
50173719

> <BindingDB Ligand Name>
CHEMBL3808784

> <Target Name Assigned by Curator or DataSource>
DNA gyrase

> <Target Source Organism According to Curator or DataSource>
Staphylococcus aureus

> <Ki (nM)>


> <IC50 (nM)>
 23

> <Kd (nM)>


> <EC50 (nM)>


> <kon (M-1-s-1)>


> <koff (s-1)>


> <pH>


> <Temp C>


> <Curation/DataSource>
ChEMBL

> <Article DOI>
10.1021/acsmedchemlett.5b00368

> <PMID>
27096044

> <PubChem AID>


> <Patent Number>


> <Authors>
Cross, JB; Zhang, J; Yang, Q; Mesleh, MF; Romero, JA; Wang, B; Bevan, D; Poutsiaka, KM; Epie, F; Moy, T; Daniel, A; Shotwell, J; Chamberlain, B; Carter, N; Andersen, O; Barker, J; Ryan, MD; Metcalf, CA; Silverman, J; Nguyen, K; Lippa, B; Dolle, RE

> <Institution>
Cubist Pharmaceuticals, Inc.

> <Link to Ligand in BindingDB>
http://www.bindingdb.org/bind/chemsearch/marvin/MolStructure.jsp?monomerid=50173719

> <Link to Ligand-Target Pair in BindingDB>
http://www.bindingdb.org/jsp/dbsearch/PrimarySearch_ki.jsp?energyterm=kJ/mole&tag=pol&polymerid=2626&target=DNA+gyrase&column=ki&startPg=0&Increment=50&submit=Search

> <Link to Ligand-Target Pair in BindingDB>
http://www.bindingdb.org/jsp/dbsearch/PrimarySearch_ki.jsp?energyterm=kJ/mole&tag=r21&monomerid=50173719&enzyme=DNA+gyrase&column=ki&startPg=0&Increment=50&submit=Search

> <Ligand HET ID in PDB>


> <PDB ID(s) for Ligand-Target Complex>


> <PubChem CID>
127043448

> <PubChem SID>
104059583

> <ChEBI ID of Ligand>


> <ChEMBL ID of Ligand>


> <DrugBank ID of Ligand>


> <IUPHAR_GRAC ID of Ligand>


> <KEGG ID of Ligand>


> <ZINC ID of Ligand>
ZINC96309541

> <Number of Protein Chains in Target (>1 implies a multichain complex)>
1

> <BindingDB Target Chain Sequence>
MVTALSDVNNTDNYGAGQIQVLEGLEAVRKRPGMYIGSTSERGLHHLVWEIVDNSIDEALAGYANQIEVVIEKDNWIKVTDNGRGIPVDIQEKMGRPAVEVILTVLHAGGKFGGGGYKVSGGLHGVGSSVVNALSQDLEVYVHRNETIYHQAYKKGVPQFDLKEVGTTDKTGTVIRFKADGEIFTETTVYNYETLQQRIRELAFLNKGIQITLRDERDEENVREDSYHYEGGIKSYVELLNENKEPIHDEPIYIHQSKDDIEVEIAIQYNSGYATNLLTYANNIHTYEGGTHEDGFKRALTRVLNSYGLSSKIMKEEKDRLSGEDTREGMTAIISIKHGDPQFEGQTKTKLGNSEVRQVVDKLFSEHFERFLYENPQVARTVVEKGIMAARARVAAKKAREVTRRKSALDVASLPGKLADCSSKSPEECEIFLVEGDSAGGSTKSGRDSRTQAILPLRGKILNVEKARLDRILNNNEIRQMITAFGTGIGGDFDLAKARYHKIVIMTDADVDGAHIRTLLLTFFYRFMRPLIEAGYVYIAQPPLYKLTQGKQKYYVYNDRELDKLKSELNPTPKWSIARYKGLGEMNADQLWETTMNPEHRALLQVKLEDAIEADQTFEMLMGDVVENRRQFIEDNAVYANLDF

> <PDB ID(s) of Target Chain>


> <UniProt (SwissProt) Recommended Name of Target Chain>
DNA gyrase subunit B

> <UniProt (SwissProt) Entry Name of Target Chain>
GYRB_STAAU

> <UniProt (SwissProt) Primary ID of Target Chain>
P0A0K8

> <UniProt (SwissProt) Secondary ID(s) of Target Chain>
P20832

> <UniProt (SwissProt) Alternative ID(s) of Target Chain>


> <UniProt (TrEMBL) Submitted Name of Target Chain>


> <UniProt (TrEMBL) Entry Name of Target Chain>


> <UniProt (TrEMBL) Primary ID of Target Chain>


> <UniProt (TrEMBL) Secondary ID(s) of Target Chain>


> <UniProt (TrEMBL) Alternative ID(s) of Target Chain>


$$$$

  Mrv0541 04031611382D          

 29 31  0  0  0  0            999 V2000
    4.9430   -3.9921    0.0000 C   0  0  0  0  0  0  0  0  0  0  0  0
    5.6449   -4.4257    0.0000 N   0  0  0  0  0  0  0  0  0  0  0  0
    6.3714   -4.0346    0.0000 C   0  0  0  0  0  0  0  0  0  0  0  0
    7.0733   -4.4682    0.0000 C   0  0  0  0  0  0  0  0  0  0  0  0
    6.3960   -3.2099    0.0000 O   0  0  0  0  0  0  0  0  0  0  0  0
    7.0442   -5.2926    0.0000 C   0  0  0  0  0  0  0  0  0  0  0  0
    7.7453   -5.7262    0.0000 N   0  0  0  0  0  0  0  0  0  0  0  0
    8.4727   -5.3350    0.0000 C   0  0  0  0  0  0  0  0  0  0  0  0
    8.4947   -4.5060    0.0000 C   0  0  0  0  0  0  0  0  0  0  0  0
    7.7929   -4.0762    0.0000 C   0  0  0  0  0  0  0  0  0  0  0  0
    9.1752   -5.7677    0.0000 N   0  0  0  0  0  0  0  0  0  0  0  0
    9.9012   -5.3756    0.0000 C   0  0  0  0  0  0  0  0  0  0  0  0
   10.6038   -5.8083    0.0000 N   0  0  0  0  0  0  0  0  0  0  0  0
    9.9247   -4.5509    0.0000 O   0  0  0  0  0  0  0  0  0  0  0  0
   11.3297   -5.4162    0.0000 C   0  0  0  0  0  0  0  0  0  0  0  0
   12.0322   -5.8489    0.0000 C   0  0  0  0  0  0  0  0  0  0  0  0
    4.9713   -3.1665    0.0000 C   0  0  0  0  0  0  0  0  0  0  0  0
    4.2702   -2.7330    0.0000 C   0  0  0  0  0  0  0  0  0  0  0  0
    3.5426   -3.1241    0.0000 C   0  0  0  0  0  0  0  0  0  0  0  0
    3.5206   -3.9533    0.0000 N   0  0  0  0  0  0  0  0  0  0  0  0
    4.2224   -4.3830    0.0000 C   0  0  0  0  0  0  0  0  0  0  0  0
    7.8138   -3.2515    0.0000 N   0  0  0  0  0  0  0  0  0  0  0  0
    8.5385   -2.8571    0.0000 C   0  0  0  0  0  0  0  0  0  0  0  0
    9.2394   -3.2894    0.0000 C   0  0  0  0  0  0  0  0  0  0  0  0
    9.9637   -2.8959    0.0000 C   0  0  0  0  0  0  0  0  0  0  0  0
    9.9851   -2.0702    0.0000 C   0  0  0  0  0  0  0  0  0  0  0  0
    9.2762   -1.6397    0.0000 C   0  0  0  0  0  0  0  0  0  0  0  0
    8.5548   -2.0357    0.0000 C   0  0  0  0  0  0  0  0  0  0  0  0
   10.7161   -1.6711    0.0000 O   0  0  0  0  0  0  0  0  0  0  0  0
  1  2  1  0  0  0  0
  2  3  1  0  0  0  0
  3  4  1  0  0  0  0
  3  5  2  0  0  0  0
  4  6  4  0  0  0  0
  6  7  4  0  0  0  0
  7  8  4  0  0  0  0
  8  9  4  0  0  0  0
  9 10  4  0  0  0  0
 10  4  4  0  0  0  0
  8 11  1  0  0  0  0
 11 12  1  0  0  0  0
 12 13  1  0  0  0  0
 12 14  2  0  0  0  0
 13 15  1  0  0  0  0
 15 16  1  0  0  0  0
  1 17  4  0  0  0  0
 17 18  4  0  0  0  0
 18 19  4  0  0  0  0
 19 20  4  0  0  0  0
 20 21  4  0  0  0  0
 21  1  4  0  0  0  0
 10 22  1  0  0  0  0
 22 23  1  0  0  0  0
 23 24  4  0  0  0  0
 24 25  4  0  0  0  0
 25 26  4  0  0  0  0
 26 27  4  0  0  0  0
 27 28  4  0  0  0  0
 28 23  4  0  0  0  0
 26 29  1  0  0  0  0
M  END
> <From> 
www.bindingDB.org

> <BindingDB Reactant_set_id>
50291098

> <Ligand InChI>
InChI=1S/C20H20N6O3/c1-2-22-20(29)26-18-10-17(24-13-5-7-15(27)8-6-13)16(12-23-18)19(28)25-14-4-3-9-21-11-14/h3-12,27H,2H2,1H3,(H,25,28)(H3,22,23,24,26,29)

> <Ligand InChI Key>
IYJZRZIDVYDIHE-UHFFFAOYSA-N

> <BindingDB MonomerID>
50058509

> <BindingDB Ligand Name>
CHEMBL3329317

> <Target Name Assigned by Curator or DataSource>
DNA Gyrase Subunit B

> <Target Source Organism According to Curator or DataSource>
Staphylococcus aureus

> <Ki (nM)>


> <IC50 (nM)>
 24

> <Kd (nM)>


> <EC50 (nM)>


> <kon (M-1-s-1)>


> <koff (s-1)>


> <pH>


> <Temp C>


> <Curation/DataSource>
ChEMBL

> <Article DOI>
10.1016/j.ejmech.2014.08.025

> <PMID>
25137573

> <PubChem AID>


> <Patent Number>


> <Authors>
Yule, IA; Czaplewski, LG; Pommier, S; Davies, DT; Narramore, SK; Fishwick, CW

> <Institution>
University of Leeds

> <Link to Ligand in BindingDB>
http://www.bindingdb.org/bind/chemsearch/marvin/MolStructure.jsp?monomerid=50058509

> <Link to Ligand-Target Pair in BindingDB>
http://www.bindingdb.org/jsp/dbsearch/PrimarySearch_ki.jsp?energyterm=kJ/mole&tag=pol&polymerid=2626&target=DNA+Gyrase+Subunit+B&column=ki&startPg=0&Increment=50&submit=Search

> <Link to Ligand-Target Pair in BindingDB>
http://www.bindingdb.org/jsp/dbsearch/PrimarySearch_ki.jsp?energyterm=kJ/mole&tag=r21&monomerid=50058509&enzyme=DNA+Gyrase+Subunit+B&column=ki&startPg=0&Increment=50&submit=Search

> <Ligand HET ID in PDB>


> <PDB ID(s) for Ligand-Target Complex>


> <PubChem CID>
118712316

> <PubChem SID>
313070448

> <ChEBI ID of Ligand>


> <ChEMBL ID of Ligand>


> <DrugBank ID of Ligand>


> <IUPHAR_GRAC ID of Ligand>


> <KEGG ID of Ligand>


> <ZINC ID of Ligand>


> <Number of Protein Chains in Target (>1 implies a multichain complex)>
1

> <BindingDB Target Chain Sequence>
MVTALSDVNNTDNYGAGQIQVLEGLEAVRKRPGMYIGSTSERGLHHLVWEIVDNSIDEALAGYANQIEVVIEKDNWIKVTDNGRGIPVDIQEKMGRPAVEVILTVLHAGGKFGGGGYKVSGGLHGVGSSVVNALSQDLEVYVHRNETIYHQAYKKGVPQFDLKEVGTTDKTGTVIRFKADGEIFTETTVYNYETLQQRIRELAFLNKGIQITLRDERDEENVREDSYHYEGGIKSYVELLNENKEPIHDEPIYIHQSKDDIEVEIAIQYNSGYATNLLTYANNIHTYEGGTHEDGFKRALTRVLNSYGLSSKIMKEEKDRLSGEDTREGMTAIISIKHGDPQFEGQTKTKLGNSEVRQVVDKLFSEHFERFLYENPQVARTVVEKGIMAARARVAAKKAREVTRRKSALDVASLPGKLADCSSKSPEECEIFLVEGDSAGGSTKSGRDSRTQAILPLRGKILNVEKARLDRILNNNEIRQMITAFGTGIGGDFDLAKARYHKIVIMTDADVDGAHIRTLLLTFFYRFMRPLIEAGYVYIAQPPLYKLTQGKQKYYVYNDRELDKLKSELNPTPKWSIARYKGLGEMNADQLWETTMNPEHRALLQVKLEDAIEADQTFEMLMGDVVENRRQFIEDNAVYANLDF

> <PDB ID(s) of Target Chain>


> <UniProt (SwissProt) Recommended Name of Target Chain>
DNA gyrase subunit B

> <UniProt (SwissProt) Entry Name of Target Chain>
GYRB_STAAU

> <UniProt (SwissProt) Primary ID of Target Chain>
P0A0K8

> <UniProt (SwissProt) Secondary ID(s) of Target Chain>
P20832

> <UniProt (SwissProt) Alternative ID(s) of Target Chain>


> <UniProt (TrEMBL) Submitted Name of Target Chain>


> <UniProt (TrEMBL) Entry Name of Target Chain>


> <UniProt (TrEMBL) Primary ID of Target Chain>


> <UniProt (TrEMBL) Secondary ID(s) of Target Chain>


> <UniProt (TrEMBL) Alternative ID(s) of Target Chain>


$$$$

  Mrv0541 11241420052D          

 26 28  0  0  0  0            999 V2000
   19.5526  -13.3206    0.0000 C   0  0  0  0  0  0  0  0  0  0  0  0
   19.5513  -14.1480    0.0000 C   0  0  0  0  0  0  0  0  0  0  0  0
   20.2662  -14.5609    0.0000 N   0  0  0  0  0  0  0  0  0  0  0  0
   20.2644  -12.9079    0.0000 C   0  0  0  0  0  0  0  0  0  0  0  0
   18.8380  -12.9083    0.0000 C   0  0  0  0  0  0  0  0  0  0  0  0
   18.8412  -12.0824    0.0000 C   0  0  0  0  0  0  0  0  0  0  0  0
   18.1275  -11.6701    0.0000 N   0  0  0  0  0  0  0  0  0  0  0  0
   17.4121  -12.0828    0.0000 C   0  0  0  0  0  0  0  0  0  0  0  0
   17.4149  -12.9121    0.0000 C   0  0  0  0  0  0  0  0  0  0  0  0
   18.1293  -13.3206    0.0000 C   0  0  0  0  0  0  0  0  0  0  0  0
   20.9798  -13.3170    0.0000 C   0  0  0  0  0  0  0  0  0  0  0  0
   20.9801  -14.1481    0.0000 C   0  0  0  0  0  0  0  0  0  0  0  0
   21.7704  -14.4047    0.0000 S   0  0  0  0  0  0  0  0  0  0  0  0
   22.2587  -13.7321    0.0000 C   0  0  0  0  0  0  0  0  0  0  0  0
   21.7700  -13.0601    0.0000 N   0  0  0  0  0  0  0  0  0  0  0  0
   23.0837  -13.7318    0.0000 N   0  0  0  0  0  0  0  0  0  0  0  0
   23.4960  -13.0173    0.0000 C   0  0  0  0  0  0  0  0  0  0  0  0
   24.3210  -13.0170    0.0000 O   0  0  0  0  0  0  0  0  0  0  0  0
   23.0832  -12.3029    0.0000 N   0  0  0  0  0  0  0  0  0  0  0  0
   23.4955  -11.5884    0.0000 C   0  0  0  0  0  0  0  0  0  0  0  0
   23.0827  -10.8740    0.0000 C   0  0  0  0  0  0  0  0  0  0  0  0
   18.8366  -14.5600    0.0000 O   0  0  0  0  0  0  0  0  0  0  0  0
   20.2664  -15.3859    0.0000 C   0  0  0  0  0  0  0  0  0  0  0  0
   19.5521  -15.7986    0.0000 C   0  0  0  0  0  0  0  0  0  0  0  0
   18.8375  -15.3863    0.0000 C   0  0  0  0  0  0  0  0  0  0  0  0
   19.5523  -16.6236    0.0000 C   0  0  0  0  0  0  0  0  0  0  0  0
  1  2  1  0  0  0  0
  2  3  1  0  0  0  0
  3 12  1  0  0  0  0
 11  4  1  0  0  0  0
  4  1  2  0  0  0  0
  1  5  1  0  0  0  0
  5  6  2  0  0  0  0
  6  7  1  0  0  0  0
  7  8  2  0  0  0  0
  8  9  1  0  0  0  0
  9 10  2  0  0  0  0
 10  5  1  0  0  0  0
 11 12  2  0  0  0  0
 12 13  1  0  0  0  0
 13 14  1  0  0  0  0
 14 15  2  0  0  0  0
 15 11  1  0  0  0  0
 14 16  1  0  0  0  0
 16 17  1  0  0  0  0
 17 18  2  0  0  0  0
 17 19  1  0  0  0  0
 19 20  1  0  0  0  0
 20 21  1  0  0  0  0
  2 22  2  0  0  0  0
  3 23  1  0  0  0  0
 23 24  1  0  0  0  0
 24 25  1  0  0  0  0
 24 26  1  0  0  0  0
M  END
> <From> 
www.bindingDB.org

> <BindingDB Reactant_set_id>
51091627

> <Ligand InChI>
InChI=1S/C18H21N5O2S/c1-4-20-17(25)22-18-21-14-8-13(12-6-5-7-19-9-12)15(24)23(10-11(2)3)16(14)26-18/h5-9,11H,4,10H2,1-3H3,(H2,20,21,22,25)

> <Ligand InChI Key>
DMEUWOUOMPOIFT-UHFFFAOYSA-N

> <BindingDB MonomerID>
50447315

> <BindingDB Ligand Name>
CHEMBL3114219

> <Target Name Assigned by Curator or DataSource>
DNA gyrase subunit B

> <Target Source Organism According to Curator or DataSource>


> <Ki (nM)>


> <IC50 (nM)>
 25

> <Kd (nM)>


> <EC50 (nM)>


> <kon (M-1-s-1)>


> <koff (s-1)>


> <pH>


> <Temp C>


> <Curation/DataSource>
ChEMBL

> <Article DOI>
10.1016/j.bmcl.2013.12.080

> <PMID>
24405701

> <PubChem AID>


> <Patent Number>


> <Authors>
Kale, RR; Kale, MG; Waterson, D; Raichurkar, A; Hameed, SP; Manjunatha, MR; Kishore Reddy, BK; Malolanarasimhan, K; Shinde, V; Koushik, K; Jena, LK; Menasinakai, S; Humnabadkar, V; Madhavapeddi, P; Basavarajappa, H; Sharma, S; Nandishaiah, R; Mahesh Kumar, KN; Ganguly, S; Ahuja, V; Gaonkar, S; Naveen Kumar, CN; Ogg, D; Boriack-Sjodin, PA; Sambandamurthy, VK; de Sousa, SM; Ghorpade, SR

> <Institution>
AstraZeneca

> <Link to Ligand in BindingDB>
http://www.bindingdb.org/bind/chemsearch/marvin/MolStructure.jsp?monomerid=50447315

> <Link to Ligand-Target Pair in BindingDB>
http://www.bindingdb.org/jsp/dbsearch/PrimarySearch_ki.jsp?energyterm=kJ/mole&tag=pol&polymerid=50006452&target=DNA+gyrase+subunit+B&column=ki&startPg=0&Increment=50&submit=Search

> <Link to Ligand-Target Pair in BindingDB>
http://www.bindingdb.org/jsp/dbsearch/PrimarySearch_ki.jsp?energyterm=kJ/mole&tag=r21&monomerid=50447315&enzyme=DNA+gyrase+subunit+B&column=ki&startPg=0&Increment=50&submit=Search

> <Ligand HET ID in PDB>


> <PDB ID(s) for Ligand-Target Complex>


> <PubChem CID>
76314163

> <PubChem SID>
194945211

> <ChEBI ID of Ligand>


> <ChEMBL ID of Ligand>
CHEMBL3114219

> <DrugBank ID of Ligand>


> <IUPHAR_GRAC ID of Ligand>


> <KEGG ID of Ligand>


> <ZINC ID of Ligand>


> <Number of Protein Chains in Target (>1 implies a multichain complex)>
1

> <BindingDB Target Chain Sequence>
MAAQKNNAPKEYGADSITILEGLEAVRKRPGMYIGSTGERGLHHLIWEVVDNAVDEAMAGFATRVDVKIHADGSVEVRDDGRGIPVEMHATGMPTIDVVMTQLHAGGKFDGETYAVSGGLHGVGVSVVNALSTRLEATVLRDGYEWFQYYDRSVPGKLKQGGETKETGTTIRFWADPEIFETTDYNFETVARRLQEMAFLNKGLTIELTDERVTAEEVVDDVVKDTAEAPKTADEKAAEATGPSKVKHRVFHYPGGLVDYVKHINRTKTPIQQSIIDFDGKGPGHEVEIAMQWNAGYSESVHTFANTINTHEGGTHEEGFRAALTSVVNRYAKDKKLLKDKDPNLTGDDIREGLAAVISVKVAEPQFEGQTKTKLGNTEVKSFVQKICNEQLQHWFEANPAEAKTVVNKAVSSAQARIAARKARELVRRKSATDIGGLPGKLADCRSTDPSKSELYVVEGDSAGGSAKSGRDSMFQAILPLRGKIINVEKARIDRVLKNTEVQSIITALGTGIHDEFDISKLRYHKIVLMADADVDGQHISTLLLTLLFRFMKPLVENGHIFLAQPPLYKLKWQRSEPEFAYSDRERDGLLEAGRAAGKKINVDDGIQRYKGLGEMDAKELWETTMDPSVRVLRQVTLDDAAAADELFSILMGEDVEARRSFITRNAKDVRFLDV

> <PDB ID(s) of Target Chain>
4BAE

> <UniProt (SwissProt) Recommended Name of Target Chain>
DNA gyrase subunit B

> <UniProt (SwissProt) Entry Name of Target Chain>
GYRB_MYCSM

> <UniProt (SwissProt) Primary ID of Target Chain>
P0C559

> <UniProt (SwissProt) Secondary ID(s) of Target Chain>
P48355,Q59555

> <UniProt (SwissProt) Alternative ID(s) of Target Chain>


> <UniProt (TrEMBL) Submitted Name of Target Chain>


> <UniProt (TrEMBL) Entry Name of Target Chain>


> <UniProt (TrEMBL) Primary ID of Target Chain>


> <UniProt (TrEMBL) Secondary ID(s) of Target Chain>


> <UniProt (TrEMBL) Alternative ID(s) of Target Chain>


$$$$

  SciTegic09291413392D

 26 28  0  0  0  0            999 V2000
   12.5082   -7.1277    0.0000 C   0  0
   12.5071   -7.9472    0.0000 C   0  0
   13.2151   -8.3562    0.0000 N   0  0
   13.2133   -6.7188    0.0000 C   0  0
   13.9219   -7.1241    0.0000 C   0  0
   13.9268   -7.9472    0.0000 C   0  0
   14.7111   -8.1971    0.0000 S   0  0
   15.1912   -7.5282    0.0000 C   0  0
   14.7033   -6.8652    0.0000 N   0  0
   11.8025   -6.7194    0.0000 C   0  0
   11.8036   -5.9011    0.0000 C   0  0
   11.0966   -5.4928    0.0000 C   0  0
   10.3881   -5.9016    0.0000 C   0  0
   10.3909   -6.7230    0.0000 N   0  0
   16.0083   -7.5234    0.0000 N   0  0
   16.4127   -6.8133    0.0000 C   0  0
   17.2299   -6.8085    0.0000 N   0  0
   16.0000   -6.1080    0.0000 O   0  0
   17.6343   -6.0984    0.0000 C   0  0
   18.4515   -6.0935    0.0000 C   0  0
   11.7990   -8.3553    0.0000 O   0  0
   11.0917   -7.9461    0.0000 C   0  0
   11.0923   -7.1289    0.0000 C   0  0
   10.3836   -8.3541    0.0000 C   0  0
    9.6762   -7.9450    0.0000 O   0  0
    8.9682   -8.3530    0.0000 C   0  0
  1  2  2  0
  2  3  1  0
  3  6  2  0
  5  4  2  0
  4  1  1  0
  5  6  1  0
  6  7  1  0
  7  8  1  0
  8  9  2  0
  9  5  1  0
 10 11  2  0
 11 12  1  0
 12 13  2  0
 13 14  1  0
 14 23  2  0
 23 10  1  0
  1 10  1  0
  8 15  1  0
 15 16  1  0
 16 17  1  0
 16 18  2  0
 17 19  1  0
 19 20  1  0
  2 21  1  0
 21 22  1  0
 22 24  1  0
 24 25  1  0
 25 26  1  0
M  END
> <From> 
www.bindingDB.org

> <BindingDB Reactant_set_id>
50089899

> <Ligand InChI>
InChI=1S/C17H19N5O3S/c1-3-19-16(23)22-17-20-13-9-12(11-5-4-6-18-10-11)14(21-15(13)26-17)25-8-7-24-2/h4-6,9-10H,3,7-8H2,1-2H3,(H2,19,20,22,23)

> <Ligand InChI Key>
BPIAZJYUGZZIFG-UHFFFAOYSA-N

> <BindingDB MonomerID>
50010345

> <BindingDB Ligand Name>
CHEMBL3263589

> <Target Name Assigned by Curator or DataSource>
DNA gyrase subunit B

> <Target Source Organism According to Curator or DataSource>


> <Ki (nM)>


> <IC50 (nM)>
 25

> <Kd (nM)>


> <EC50 (nM)>


> <kon (M-1-s-1)>


> <koff (s-1)>


> <pH>


> <Temp C>


> <Curation/DataSource>
ChEMBL

> <Article DOI>
10.1021/jm401268f

> <PMID>
24088190

> <PubChem AID>


> <Patent Number>


> <Authors>
Ahuja, V; Ahuja, V; Basavarajappa, H; Basavarajappa, H; P, SH; P, SH; Boriack-Sjodin, PA; Boriack-Sjodin, PA; McKinney, D; McKinney, D; Ganguly, S; Ganguly, S; Kranthi, U; Kranthi, U; Gaonkar, S; Gaonkar, S; Jena, Lk; Jena, Lk; Ghorpade, SR; Ghorpade, SR; Ghosh, A; Ghosh, A; Barde, S; Barde, S; Kale, MG; Kale, MG; Koushik, K; Koushik, K; Kumar, CN; Kumar, CN; Manjunatha, MR; Manjunatha, MR; Ogg, D; Ogg, D; Panduga, V; Panduga, V; Ramya, VK; Ramya, VK; Reddy, J; Reddy, J; Kumar, KN; Kumar, KN; Giridhar, J; Giridhar, J; Rudrapatna, S; Rudrapatna, S; Sharma, S; Sharma, S; Tucker, JA; Tucker, JA; Vachaspati, P; Vachaspati, P; Waterson, D; Waterson, D; de Sousa, SM; de Sousa, SM

> <Institution>
AstraZeneca India Pvt. Ltd.

> <Link to Ligand in BindingDB>
http://www.bindingdb.org/bind/chemsearch/marvin/MolStructure.jsp?monomerid=50010345

> <Link to Ligand-Target Pair in BindingDB>
http://www.bindingdb.org/jsp/dbsearch/PrimarySearch_ki.jsp?energyterm=kJ/mole&tag=pol&polymerid=50006452&target=DNA+gyrase+subunit+B&column=ki&startPg=0&Increment=50&submit=Search

> <Link to Ligand-Target Pair in BindingDB>
http://www.bindingdb.org/jsp/dbsearch/PrimarySearch_ki.jsp?energyterm=kJ/mole&tag=r21&monomerid=50010345&enzyme=DNA+gyrase+subunit+B&column=ki&startPg=0&Increment=50&submit=Search

> <Ligand HET ID in PDB>


> <PDB ID(s) for Ligand-Target Complex>


> <PubChem CID>
59352825

> <PubChem SID>
103923159

> <ChEBI ID of Ligand>


> <ChEMBL ID of Ligand>
CHEMBL3263589

> <DrugBank ID of Ligand>


> <IUPHAR_GRAC ID of Ligand>


> <KEGG ID of Ligand>


> <ZINC ID of Ligand>
ZINC26971202

> <Number of Protein Chains in Target (>1 implies a multichain complex)>
1

> <BindingDB Target Chain Sequence>
MAAQKNNAPKEYGADSITILEGLEAVRKRPGMYIGSTGERGLHHLIWEVVDNAVDEAMAGFATRVDVKIHADGSVEVRDDGRGIPVEMHATGMPTIDVVMTQLHAGGKFDGETYAVSGGLHGVGVSVVNALSTRLEATVLRDGYEWFQYYDRSVPGKLKQGGETKETGTTIRFWADPEIFETTDYNFETVARRLQEMAFLNKGLTIELTDERVTAEEVVDDVVKDTAEAPKTADEKAAEATGPSKVKHRVFHYPGGLVDYVKHINRTKTPIQQSIIDFDGKGPGHEVEIAMQWNAGYSESVHTFANTINTHEGGTHEEGFRAALTSVVNRYAKDKKLLKDKDPNLTGDDIREGLAAVISVKVAEPQFEGQTKTKLGNTEVKSFVQKICNEQLQHWFEANPAEAKTVVNKAVSSAQARIAARKARELVRRKSATDIGGLPGKLADCRSTDPSKSELYVVEGDSAGGSAKSGRDSMFQAILPLRGKIINVEKARIDRVLKNTEVQSIITALGTGIHDEFDISKLRYHKIVLMADADVDGQHISTLLLTLLFRFMKPLVENGHIFLAQPPLYKLKWQRSEPEFAYSDRERDGLLEAGRAAGKKINVDDGIQRYKGLGEMDAKELWETTMDPSVRVLRQVTLDDAAAADELFSILMGEDVEARRSFITRNAKDVRFLDV

> <PDB ID(s) of Target Chain>
4BAE

> <UniProt (SwissProt) Recommended Name of Target Chain>
DNA gyrase subunit B

> <UniProt (SwissProt) Entry Name of Target Chain>
GYRB_MYCSM

> <UniProt (SwissProt) Primary ID of Target Chain>
P0C559

> <UniProt (SwissProt) Secondary ID(s) of Target Chain>
P48355,Q59555

> <UniProt (SwissProt) Alternative ID(s) of Target Chain>


> <UniProt (TrEMBL) Submitted Name of Target Chain>


> <UniProt (TrEMBL) Entry Name of Target Chain>


> <UniProt (TrEMBL) Primary ID of Target Chain>


> <UniProt (TrEMBL) Secondary ID(s) of Target Chain>


> <UniProt (TrEMBL) Alternative ID(s) of Target Chain>


$$$$

  SciTegic12091614222D

 27 30  0  0  0  0            999 V2000
    7.5821    5.5422    0.0000 C   0  0
    6.3724    4.6552    0.0000 C   0  0
    5.0044    5.2582    0.0000 C   0  0
    4.8363    6.7505    0.0000 C   0  0
    6.0460    7.6374    0.0000 N   0  0
    7.4189    7.0332    0.0000 C   0  0
    3.6243    2.9682    0.0000 S   0  0
    3.7308    4.4645    0.0000 C   0  0
    2.3406    5.0280    0.0000 N   0  0
    1.3751    3.8801    0.0000 C   0  0
    2.1749    2.6315    0.0000 C   0  0
    1.7138   -1.2033    0.0000 N   0  0
    2.5889    0.0182    0.0000 N   0  0
    1.7138    1.2033    0.0000 C   0  0
    0.2917    0.7475    0.0000 C   0  0
   -1.0028    1.5132    0.0000 C   0  0
   -2.3155    0.7475    0.0000 C   0  0
   -2.3155   -0.7475    0.0000 C   0  0
   -1.0028   -1.5132    0.0000 C   0  0
    0.2917   -0.7475    0.0000 C   0  0
   -0.9971   -3.0138    0.0000 C   0  0
   -2.2935   -3.7700    0.0000 C   0  0
   -2.2889   -4.9699    0.0000 C   0  0
    8.6311    7.9182    0.0000 C   0  0
   10.0039    7.3117    0.0000 C   0  0
   10.1324    6.1186    0.0000 O   0  0
   10.9732    8.0192    0.0000 O   0  0
  1  2  1  0
  2  3  2  0
  3  4  1  0
  4  5  2  0
  5  6  1  0
  1  6  2  0
  7  8  1  0
  8  9  2  0
  9 10  1  0
 10 11  2  0
  7 11  1  0
 12 13  1  0
 13 14  2  0
 14 15  1  0
 15 16  1  0
 16 17  2  0
 17 18  1  0
 18 19  2  0
 19 20  1  0
 12 20  1  0
 15 20  2  0
 21 22  1  0
 22 23  1  0
 19 21  1  0
 11 14  1  0
  3  8  1  0
  6 24  1  0
 24 25  1  0
 25 26  1  0
 25 27  2  0
M  END
> <From> 
www.bindingDB.org

> <BindingDB Reactant_set_id>
50445672

> <Ligand InChI>
InChI=1S/C20H18N4O2S/c1-2-4-12-5-3-6-15-18(12)23-24-19(15)16-11-22-20(27-16)13-7-8-14(21-10-13)9-17(25)26/h3,5-8,10-11H,2,4,9H2,1H3,(H,23,24)(H,25,26)

> <Ligand InChI Key>
KMPGOGCULCADRV-UHFFFAOYSA-N

> <BindingDB MonomerID>
50135113

> <BindingDB Ligand Name>
CHEMBL3741416

> <Target Name Assigned by Curator or DataSource>
DNA gyrase

> <Target Source Organism According to Curator or DataSource>
Staphylococcus aureus

> <Ki (nM)>


> <IC50 (nM)>
 25

> <Kd (nM)>


> <EC50 (nM)>


> <kon (M-1-s-1)>


> <koff (s-1)>


> <pH>


> <Temp C>


> <Curation/DataSource>
ChEMBL

> <Article DOI>
10.1021/acsmedchemlett.5b00266

> <PMID>
26487916

> <PubChem AID>


> <Patent Number>


> <Authors>
Zhang, J; Yang, Q; Romero, JA; Cross, J; Wang, B; Poutsiaka, KM; Epie, F; Bevan, D; Wu, Y; Moy, T; Daniel, A; Chamberlain, B; Carter, N; Shotwell, J; Arya, A; Kumar, V; Silverman, J; Nguyen, K; Metcalf, CA; Ryan, D; Lippa, B; Dolle, RE

> <Institution>
Cubist Pharmaceuticals Inc.

> <Link to Ligand in BindingDB>
http://www.bindingdb.org/bind/chemsearch/marvin/MolStructure.jsp?monomerid=50135113

> <Link to Ligand-Target Pair in BindingDB>
http://www.bindingdb.org/jsp/dbsearch/PrimarySearch_ki.jsp?energyterm=kJ/mole&tag=pol&polymerid=2626&target=DNA+gyrase&column=ki&startPg=0&Increment=50&submit=Search

> <Link to Ligand-Target Pair in BindingDB>
http://www.bindingdb.org/jsp/dbsearch/PrimarySearch_ki.jsp?energyterm=kJ/mole&tag=r21&monomerid=50135113&enzyme=DNA+gyrase&column=ki&startPg=0&Increment=50&submit=Search

> <Ligand HET ID in PDB>


> <PDB ID(s) for Ligand-Target Complex>


> <PubChem CID>
127038119

> <PubChem SID>
336951726

> <ChEBI ID of Ligand>


> <ChEMBL ID of Ligand>


> <DrugBank ID of Ligand>


> <IUPHAR_GRAC ID of Ligand>


> <KEGG ID of Ligand>


> <ZINC ID of Ligand>


> <Number of Protein Chains in Target (>1 implies a multichain complex)>
1

> <BindingDB Target Chain Sequence>
MVTALSDVNNTDNYGAGQIQVLEGLEAVRKRPGMYIGSTSERGLHHLVWEIVDNSIDEALAGYANQIEVVIEKDNWIKVTDNGRGIPVDIQEKMGRPAVEVILTVLHAGGKFGGGGYKVSGGLHGVGSSVVNALSQDLEVYVHRNETIYHQAYKKGVPQFDLKEVGTTDKTGTVIRFKADGEIFTETTVYNYETLQQRIRELAFLNKGIQITLRDERDEENVREDSYHYEGGIKSYVELLNENKEPIHDEPIYIHQSKDDIEVEIAIQYNSGYATNLLTYANNIHTYEGGTHEDGFKRALTRVLNSYGLSSKIMKEEKDRLSGEDTREGMTAIISIKHGDPQFEGQTKTKLGNSEVRQVVDKLFSEHFERFLYENPQVARTVVEKGIMAARARVAAKKAREVTRRKSALDVASLPGKLADCSSKSPEECEIFLVEGDSAGGSTKSGRDSRTQAILPLRGKILNVEKARLDRILNNNEIRQMITAFGTGIGGDFDLAKARYHKIVIMTDADVDGAHIRTLLLTFFYRFMRPLIEAGYVYIAQPPLYKLTQGKQKYYVYNDRELDKLKSELNPTPKWSIARYKGLGEMNADQLWETTMNPEHRALLQVKLEDAIEADQTFEMLMGDVVENRRQFIEDNAVYANLDF

> <PDB ID(s) of Target Chain>


> <UniProt (SwissProt) Recommended Name of Target Chain>
DNA gyrase subunit B

> <UniProt (SwissProt) Entry Name of Target Chain>
GYRB_STAAU

> <UniProt (SwissProt) Primary ID of Target Chain>
P0A0K8

> <UniProt (SwissProt) Secondary ID(s) of Target Chain>
P20832

> <UniProt (SwissProt) Alternative ID(s) of Target Chain>


> <UniProt (TrEMBL) Submitted Name of Target Chain>


> <UniProt (TrEMBL) Entry Name of Target Chain>


> <UniProt (TrEMBL) Primary ID of Target Chain>


> <UniProt (TrEMBL) Secondary ID(s) of Target Chain>


> <UniProt (TrEMBL) Alternative ID(s) of Target Chain>


$$$$

  Mrv0541 11231413392D          

 46 50  0  0  0  0            999 V2000
   13.7162   -6.3014    0.0000 C   0  0  0  0  0  0  0  0  0  0  0  0
   12.9904   -5.8999    0.0000 C   0  0  1  0  0  0  0  0  0  0  0  0
   12.2836   -6.3254    0.0000 C   0  0  2  0  0  0  0  0  0  0  0  0
   12.2965   -7.1542    0.0000 C   0  0  2  0  0  0  0  0  0  0  0  0
   13.0224   -7.5558    0.0000 C   0  0  1  0  0  0  0  0  0  0  0  0
   13.7354   -7.1284    0.0000 O   0  0  0  0  0  0  0  0  0  0  0  0
   13.0367   -8.3806    0.0000 O   0  0  0  0  0  0  0  0  0  0  0  0
   13.7564   -8.7919    0.0000 C   0  0  0  0  0  0  0  0  0  0  0  0
   13.7557   -9.6163    0.0000 C   0  0  0  0  0  0  0  0  0  0  0  0
   14.4713   -8.3776    0.0000 C   0  0  0  0  0  0  0  0  0  0  0  0
   15.1857   -8.7953    0.0000 C   0  0  0  0  0  0  0  0  0  0  0  0
   15.1839   -9.6199    0.0000 C   0  0  0  0  0  0  0  0  0  0  0  0
   14.4686  -10.0315    0.0000 C   0  0  0  0  0  0  0  0  0  0  0  0
   14.4674  -10.8521    0.0000 O   0  0  0  0  0  0  0  0  0  0  0  0
   15.1797  -11.2674    0.0000 C   0  0  0  0  0  0  0  0  0  0  0  0
   15.8950  -10.8559    0.0000 C   0  0  0  0  0  0  0  0  0  0  0  0
   15.8979  -10.0291    0.0000 C   0  0  0  0  0  0  0  0  0  0  0  0
   16.6124   -9.6166    0.0000 O   0  0  0  0  0  0  0  0  0  0  0  0
   15.1774  -12.0924    0.0000 O   0  0  0  0  0  0  0  0  0  0  0  0
   16.6083  -11.2702    0.0000 N   0  0  0  0  0  0  0  0  0  0  0  0
   16.6064  -12.0951    0.0000 C   0  0  0  0  0  0  0  0  0  0  0  0
   15.8908  -12.5059    0.0000 O   0  0  0  0  0  0  0  0  0  0  0  0
   17.3197  -12.5094    0.0000 C   0  0  0  0  0  0  0  0  0  0  0  0
   17.3147  -13.3336    0.0000 C   0  0  0  0  0  0  0  0  0  0  0  0
   18.0274  -13.7477    0.0000 C   0  0  0  0  0  0  0  0  0  0  0  0
   18.7438  -13.3370    0.0000 C   0  0  0  0  0  0  0  0  0  0  0  0
   18.7432  -12.5077    0.0000 C   0  0  0  0  0  0  0  0  0  0  0  0
   18.0300  -12.0973    0.0000 C   0  0  0  0  0  0  0  0  0  0  0  0
   19.4578  -13.7503    0.0000 O   0  0  0  0  0  0  0  0  0  0  0  0
   14.5437   -6.2825    0.0000 C   0  0  0  0  0  0  0  0  0  0  0  0
   13.7054   -5.4783    0.0000 C   0  0  0  0  0  0  0  0  0  0  0  0
   12.9752   -5.0751    0.0000 O   0  0  0  0  0  0  0  0  0  0  0  0
   13.6820   -4.6495    0.0000 C   0  0  0  0  0  0  0  0  0  0  0  0
   11.5623   -5.9251    0.0000 O   0  0  0  0  0  0  0  0  0  0  0  0
   11.5482   -5.1002    0.0000 C   0  0  0  0  0  0  0  0  0  0  0  0
   10.8273   -4.6996    0.0000 C   0  0  0  0  0  0  0  0  0  0  0  0
   12.2556   -4.6757    0.0000 O   0  0  0  0  0  0  0  0  0  0  0  0
   11.5892   -7.5788    0.0000 O   0  0  0  0  0  0  0  0  0  0  0  0
   10.5915   -3.9060    0.0000 C   0  0  0  0  0  0  0  0  0  0  0  0
    9.7669   -3.8829    0.0000 C   0  0  0  0  0  0  0  0  0  0  0  0
    9.4900   -4.6602    0.0000 C   0  0  0  0  0  0  0  0  0  0  0  0
   10.1437   -5.1635    0.0000 N   0  0  0  0  0  0  0  0  0  0  0  0
    8.7721   -5.0644    0.0000 C   0  0  0  0  0  0  0  0  0  0  0  0
   19.4572  -12.0946    0.0000 O   0  0  0  0  0  0  0  0  0  0  0  0
   20.1721  -12.5063    0.0000 C   0  0  0  0  0  0  0  0  0  0  0  0
   13.0403  -10.0272    0.0000 C   0  0  0  0  0  0  0  0  0  0  0  0
 21 22  2  0  0  0  0
 11 10  1  0  0  0  0
 21 23  1  0  0  0  0
 11 12  2  0  0  0  0
 23 24  2  0  0  0  0
  3  4  1  0  0  0  0
 24 25  1  0  0  0  0
 12 13  1  0  0  0  0
 25 26  2  0  0  0  0
  4  5  1  0  0  0  0
 26 27  1  0  0  0  0
  5  6  1  0  0  0  0
 27 28  2  0  0  0  0
 28 23  1  0  0  0  0
 26 29  1  0  0  0  0
  5  7  1  1  0  0  0
  1 30  1  0  0  0  0
  2  1  1  0  0  0  0
  1 31  1  0  0  0  0
  7  8  1  0  0  0  0
  2 32  1  1  0  0  0
 12 17  1  0  0  0  0
 32 33  1  0  0  0  0
 13 14  1  0  0  0  0
  3 34  1  6  0  0  0
 14 15  1  0  0  0  0
 34 35  1  0  0  0  0
 15 16  1  0  0  0  0
 35 36  1  0  0  0  0
 16 17  2  0  0  0  0
 35 37  2  0  0  0  0
  8  9  1  0  0  0  0
  4 38  1  6  0  0  0
 36 39  2  0  0  0  0
 17 18  1  0  0  0  0
  1  6  1  0  0  0  0
 15 19  2  0  0  0  0
  3  2  1  0  0  0  0
 39 40  1  0  0  0  0
 40 41  2  0  0  0  0
 41 42  1  0  0  0  0
 42 36  1  0  0  0  0
 16 20  1  0  0  0  0
 41 43  1  0  0  0  0
  8 10  2  0  0  0  0
 27 44  1  0  0  0  0
 20 21  1  0  0  0  0
 44 45  1  0  0  0  0
  9 13  2  0  0  0  0
  9 46  1  0  0  0  0
M  END
> <From> 
www.bindingDB.org

> <BindingDB Reactant_set_id>
50607705

> <Ligand InChI>
InChI=1S/C32H34N2O12/c1-14-7-10-18(33-14)29(39)45-26-24(37)31(46-32(3,4)27(26)42-6)43-20-12-9-17-23(36)22(30(40)44-25(17)15(20)2)34-28(38)16-8-11-19(35)21(13-16)41-5/h7-13,24,26-27,31,33,35-37H,1-6H3,(H,34,38)/t24-,26+,27-,31-/m1/s1

> <Ligand InChI Key>
XIWDWPLKRGZPJE-PPOHMGSZSA-N

> <BindingDB MonomerID>
50330313

> <BindingDB Ligand Name>
(3R,4S,5R,6R)-5-hydroxy-6-(4-hydroxy-3-(4-hydroxy-3-methoxybenzamido)-8-methyl-2-oxo-2H-chromen-7-yloxy)-3-methoxy-2,2-dimethyltetrahydro-2H-pyran-4-yl 5-methyl-1H-pyrrole-2-carboxylate::CHEMBL1275845

> <Target Name Assigned by Curator or DataSource>
DNA Gyrase Subunit B

> <Target Source Organism According to Curator or DataSource>
Escherichia coli

> <Ki (nM)>


> <IC50 (nM)>
 25

> <Kd (nM)>


> <EC50 (nM)>


> <kon (M-1-s-1)>


> <koff (s-1)>


> <pH>


> <Temp C>


> <Curation/DataSource>
ChEMBL

> <Article DOI>
10.1128/AAC.01235-07

> <PMID>
18347114

> <PubChem AID>


> <Patent Number>


> <Authors>
Anderle, C; Stieger, M; Burrell, M; Reinelt, S; Maxwell, A; Page, M; Heide, L

> <Institution>
Universit&#228;t T&#252;bingen

> <Link to Ligand in BindingDB>
http://www.bindingdb.org/bind/chemsearch/marvin/MolStructure.jsp?monomerid=50330313

> <Link to Ligand-Target Pair in BindingDB>
http://www.bindingdb.org/jsp/dbsearch/PrimarySearch_ki.jsp?energyterm=kJ/mole&tag=pol&polymerid=2630&target=DNA+Gyrase+Subunit+B&column=ki&startPg=0&Increment=50&submit=Search

> <Link to Ligand-Target Pair in BindingDB>
http://www.bindingdb.org/jsp/dbsearch/PrimarySearch_ki.jsp?energyterm=kJ/mole&tag=r21&monomerid=50330313&enzyme=DNA+Gyrase+Subunit+B&column=ki&startPg=0&Increment=50&submit=Search

> <Ligand HET ID in PDB>


> <PDB ID(s) for Ligand-Target Complex>


> <PubChem CID>
54729436

> <PubChem SID>
123109428

> <ChEBI ID of Ligand>


> <ChEMBL ID of Ligand>
CHEMBL1275845

> <DrugBank ID of Ligand>


> <IUPHAR_GRAC ID of Ligand>


> <KEGG ID of Ligand>


> <ZINC ID of Ligand>
ZINC72138072

> <Number of Protein Chains in Target (>1 implies a multichain complex)>
1

> <BindingDB Target Chain Sequence>
MSNSYDSSSIKVLKGLDAVRKRPGMYIGDTDDGTGLHHMVFEVVDNAIDEALAGHCKEII
VTIHADNSVSVQDDGRGIPTGIHPEEGVSAAEVIMTVLHAGGKFDDNSYKVSGGLHGVGV
SVVNALSQKLELVIQREGKIHRQIYEHGVPQAPLAVTGETEKTGTMVRFWPSLETFTNVT
EFEYEILAKRLRELSFLNSGVSIRLRDKRDGKEDHFHYEGGIKAFVEYLNKNKTPIHPNI
FYFSTEKDGIGVEVALQWNDGFQENIYCFTNNIPQRDGGTHLAGFRAAMTRTLNAYMDKE
GYSKKAKVSATGDDAREGLIAVVSVKVPDPKFSSQTKDKLVSSEVKSAVEQQMNELLAEY
LLENPTDAKIVVGKIIDAARAREAARRAREMTRRKGALDLAGLPGKLADCQERDPALSEL
YLVEGDSAGGSAKQGRNRKNQAILPLKGKILNVEKARFDKMLSSQEVATLITALGCGIGR
DEYNPDKLRYHSIIIMTDADVDGSHIRTLLLTFFYRQMPEIVERGHVYIAQPPLYKVKKG
KQEQYIKDDEAMDQYQISIALDGATLHTNASAPALAGEALEKLVSEYNATQKMINRMERR
YPKAMLKELIYQPTLTEADLSDEQTVTRWVNALVSELNDKEQHGSQWKFDVHTNAEQNLF
EPIVRVRTHGVDTDYPLDHEFITGGEYRRICTLGEKLRGLLEEDAFIERGERRQPVASFE
QALDWLVKESRRGLSIQRYKGLGEMNPEQLWETTMDPESRRMLRVTVKDAIAADQLFTTL
MGDAVEPRRAFIEENALKAANIDI

> <PDB ID(s) of Target Chain>
1KZN,3G7E,3NUH,4DUH,4HYP,4KFG,4PRV,4PRX,4PU9,4WUB,4WUC,4WUD,4XTJ,4ZVI,5L3J,5MMN,5MMO,5MMP,5Z4H,5Z4O,5Z9B,5Z9E,5Z9F,5Z9L,5Z9M,5Z9N,5Z9Q,6ENG,6F86,6F8J,6F94,6F96

> <UniProt (SwissProt) Recommended Name of Target Chain>
DNA gyrase subunit B

> <UniProt (SwissProt) Entry Name of Target Chain>
GYRB_ECOLI

> <UniProt (SwissProt) Primary ID of Target Chain>
P0AES6

> <UniProt (SwissProt) Secondary ID(s) of Target Chain>
O08438,P06982,Q2M811

> <UniProt (SwissProt) Alternative ID(s) of Target Chain>


> <UniProt (TrEMBL) Submitted Name of Target Chain>


> <UniProt (TrEMBL) Entry Name of Target Chain>


> <UniProt (TrEMBL) Primary ID of Target Chain>


> <UniProt (TrEMBL) Secondary ID(s) of Target Chain>


> <UniProt (TrEMBL) Alternative ID(s) of Target Chain>


$$$$

  Mrv0541 11241420052D          

 24 26  0  0  0  0            999 V2000
   12.1693   -8.0832    0.0000 C   0  0  0  0  0  0  0  0  0  0  0  0
   12.1682   -8.9105    0.0000 C   0  0  0  0  0  0  0  0  0  0  0  0
   12.8829   -9.3235    0.0000 N   0  0  0  0  0  0  0  0  0  0  0  0
   12.8811   -7.6704    0.0000 C   0  0  0  0  0  0  0  0  0  0  0  0
   11.4547   -7.6709    0.0000 C   0  0  0  0  0  0  0  0  0  0  0  0
   11.4579   -6.8449    0.0000 C   0  0  0  0  0  0  0  0  0  0  0  0
   10.7443   -6.4327    0.0000 N   0  0  0  0  0  0  0  0  0  0  0  0
   10.0289   -6.8454    0.0000 C   0  0  0  0  0  0  0  0  0  0  0  0
   10.0318   -7.6747    0.0000 C   0  0  0  0  0  0  0  0  0  0  0  0
   10.7460   -8.0832    0.0000 C   0  0  0  0  0  0  0  0  0  0  0  0
   13.5965   -8.0796    0.0000 C   0  0  0  0  0  0  0  0  0  0  0  0
   13.5968   -8.9107    0.0000 C   0  0  0  0  0  0  0  0  0  0  0  0
   14.3872   -9.1672    0.0000 S   0  0  0  0  0  0  0  0  0  0  0  0
   14.8755   -8.4947    0.0000 C   0  0  0  0  0  0  0  0  0  0  0  0
   14.3868   -7.8226    0.0000 N   0  0  0  0  0  0  0  0  0  0  0  0
   15.7005   -8.4944    0.0000 N   0  0  0  0  0  0  0  0  0  0  0  0
   16.1127   -7.7799    0.0000 C   0  0  0  0  0  0  0  0  0  0  0  0
   16.9377   -7.7796    0.0000 O   0  0  0  0  0  0  0  0  0  0  0  0
   15.7000   -7.0655    0.0000 N   0  0  0  0  0  0  0  0  0  0  0  0
   16.1122   -6.3508    0.0000 C   0  0  0  0  0  0  0  0  0  0  0  0
   15.6995   -5.6366    0.0000 C   0  0  0  0  0  0  0  0  0  0  0  0
   11.4533   -9.3225    0.0000 O   0  0  0  0  0  0  0  0  0  0  0  0
   12.8831  -10.1485    0.0000 C   0  0  0  0  0  0  0  0  0  0  0  0
   12.1688  -10.5612    0.0000 C   0  0  0  0  0  0  0  0  0  0  0  0
  1  2  1  0  0  0  0
  2  3  1  0  0  0  0
  3 12  1  0  0  0  0
 11  4  1  0  0  0  0
  4  1  2  0  0  0  0
  1  5  1  0  0  0  0
  5  6  2  0  0  0  0
  6  7  1  0  0  0  0
  7  8  2  0  0  0  0
  8  9  1  0  0  0  0
  9 10  2  0  0  0  0
 10  5  1  0  0  0  0
 11 12  2  0  0  0  0
 12 13  1  0  0  0  0
 13 14  1  0  0  0  0
 14 15  2  0  0  0  0
 15 11  1  0  0  0  0
 14 16  1  0  0  0  0
 16 17  1  0  0  0  0
 17 18  2  0  0  0  0
 17 19  1  0  0  0  0
 19 20  1  0  0  0  0
 20 21  1  0  0  0  0
  2 22  2  0  0  0  0
  3 23  1  0  0  0  0
 23 24  1  0  0  0  0
M  END
> <From> 
www.bindingDB.org

> <BindingDB Reactant_set_id>
51091631

> <Ligand InChI>
InChI=1S/C16H17N5O2S/c1-3-18-15(23)20-16-19-12-8-11(10-6-5-7-17-9-10)13(22)21(4-2)14(12)24-16/h5-9H,3-4H2,1-2H3,(H2,18,19,20,23)

> <Ligand InChI Key>
JSVBXPDVCMCJQE-UHFFFAOYSA-N

> <BindingDB MonomerID>
50447319

> <BindingDB Ligand Name>
CHEMBL3114215

> <Target Name Assigned by Curator or DataSource>
DNA gyrase subunit B

> <Target Source Organism According to Curator or DataSource>


> <Ki (nM)>


> <IC50 (nM)>
 30

> <Kd (nM)>


> <EC50 (nM)>


> <kon (M-1-s-1)>


> <koff (s-1)>


> <pH>


> <Temp C>


> <Curation/DataSource>
ChEMBL

> <Article DOI>
10.1016/j.bmcl.2013.12.080

> <PMID>
24405701

> <PubChem AID>


> <Patent Number>


> <Authors>
Kale, RR; Kale, MG; Waterson, D; Raichurkar, A; Hameed, SP; Manjunatha, MR; Kishore Reddy, BK; Malolanarasimhan, K; Shinde, V; Koushik, K; Jena, LK; Menasinakai, S; Humnabadkar, V; Madhavapeddi, P; Basavarajappa, H; Sharma, S; Nandishaiah, R; Mahesh Kumar, KN; Ganguly, S; Ahuja, V; Gaonkar, S; Naveen Kumar, CN; Ogg, D; Boriack-Sjodin, PA; Sambandamurthy, VK; de Sousa, SM; Ghorpade, SR

> <Institution>
AstraZeneca

> <Link to Ligand in BindingDB>
http://www.bindingdb.org/bind/chemsearch/marvin/MolStructure.jsp?monomerid=50447319

> <Link to Ligand-Target Pair in BindingDB>
http://www.bindingdb.org/jsp/dbsearch/PrimarySearch_ki.jsp?energyterm=kJ/mole&tag=pol&polymerid=50006452&target=DNA+gyrase+subunit+B&column=ki&startPg=0&Increment=50&submit=Search

> <Link to Ligand-Target Pair in BindingDB>
http://www.bindingdb.org/jsp/dbsearch/PrimarySearch_ki.jsp?energyterm=kJ/mole&tag=r21&monomerid=50447319&enzyme=DNA+gyrase+subunit+B&column=ki&startPg=0&Increment=50&submit=Search

> <Ligand HET ID in PDB>


> <PDB ID(s) for Ligand-Target Complex>


> <PubChem CID>
76332286

> <PubChem SID>
194945215

> <ChEBI ID of Ligand>


> <ChEMBL ID of Ligand>
CHEMBL3114215

> <DrugBank ID of Ligand>


> <IUPHAR_GRAC ID of Ligand>


> <KEGG ID of Ligand>


> <ZINC ID of Ligand>


> <Number of Protein Chains in Target (>1 implies a multichain complex)>
1

> <BindingDB Target Chain Sequence>
MAAQKNNAPKEYGADSITILEGLEAVRKRPGMYIGSTGERGLHHLIWEVVDNAVDEAMAGFATRVDVKIHADGSVEVRDDGRGIPVEMHATGMPTIDVVMTQLHAGGKFDGETYAVSGGLHGVGVSVVNALSTRLEATVLRDGYEWFQYYDRSVPGKLKQGGETKETGTTIRFWADPEIFETTDYNFETVARRLQEMAFLNKGLTIELTDERVTAEEVVDDVVKDTAEAPKTADEKAAEATGPSKVKHRVFHYPGGLVDYVKHINRTKTPIQQSIIDFDGKGPGHEVEIAMQWNAGYSESVHTFANTINTHEGGTHEEGFRAALTSVVNRYAKDKKLLKDKDPNLTGDDIREGLAAVISVKVAEPQFEGQTKTKLGNTEVKSFVQKICNEQLQHWFEANPAEAKTVVNKAVSSAQARIAARKARELVRRKSATDIGGLPGKLADCRSTDPSKSELYVVEGDSAGGSAKSGRDSMFQAILPLRGKIINVEKARIDRVLKNTEVQSIITALGTGIHDEFDISKLRYHKIVLMADADVDGQHISTLLLTLLFRFMKPLVENGHIFLAQPPLYKLKWQRSEPEFAYSDRERDGLLEAGRAAGKKINVDDGIQRYKGLGEMDAKELWETTMDPSVRVLRQVTLDDAAAADELFSILMGEDVEARRSFITRNAKDVRFLDV

> <PDB ID(s) of Target Chain>
4BAE

> <UniProt (SwissProt) Recommended Name of Target Chain>
DNA gyrase subunit B

> <UniProt (SwissProt) Entry Name of Target Chain>
GYRB_MYCSM

> <UniProt (SwissProt) Primary ID of Target Chain>
P0C559

> <UniProt (SwissProt) Secondary ID(s) of Target Chain>
P48355,Q59555

> <UniProt (SwissProt) Alternative ID(s) of Target Chain>


> <UniProt (TrEMBL) Submitted Name of Target Chain>


> <UniProt (TrEMBL) Entry Name of Target Chain>


> <UniProt (TrEMBL) Primary ID of Target Chain>


> <UniProt (TrEMBL) Secondary ID(s) of Target Chain>


> <UniProt (TrEMBL) Alternative ID(s) of Target Chain>


$$$$

  Mrv0541 11231422262D          

 27 29  0  0  0  0            999 V2000
    6.0625   -4.3500    0.0000 N   0  0  0  0  0  0  0  0  0  0  0  0
    5.3891   -3.8633    0.0000 C   0  0  0  0  0  0  0  0  0  0  0  0
    5.6458   -3.0750    0.0000 C   0  0  0  0  0  0  0  0  0  0  0  0
    6.4750   -3.0750    0.0000 C   0  0  0  0  0  0  0  0  0  0  0  0
    6.7316   -3.8638    0.0000 C   0  0  0  0  0  0  0  0  0  0  0  0
    4.6047   -4.1189    0.0000 C   0  0  0  0  0  0  0  0  0  0  0  0
    7.4484   -4.2721    0.0000 C   0  0  0  0  0  0  0  0  0  0  0  0
    7.4533   -5.0971    0.0000 O   0  0  0  0  0  0  0  0  0  0  0  0
    8.1605   -3.8554    0.0000 N   0  0  0  0  0  0  0  0  0  0  0  0
    8.8774   -4.2637    0.0000 C   0  0  0  0  0  0  0  0  0  0  0  0
    8.8785   -5.0908    0.0000 C   0  0  0  0  0  0  0  0  0  0  0  0
    9.5913   -5.4990    0.0000 C   0  0  0  0  0  0  0  0  0  0  0  0
   10.3058   -5.0858    0.0000 N   0  0  0  0  0  0  0  0  0  0  0  0
   10.3029   -4.2599    0.0000 C   0  0  0  0  0  0  0  0  0  0  0  0
    9.5855   -3.8471    0.0000 C   0  0  0  0  0  0  0  0  0  0  0  0
   11.0211   -5.4968    0.0000 C   0  0  0  0  0  0  0  0  0  0  0  0
   11.0192   -6.3219    0.0000 N   0  0  0  0  0  0  0  0  0  0  0  0
   11.7337   -6.7328    0.0000 C   0  0  0  0  0  0  0  0  0  0  0  0
   12.4483   -6.3188    0.0000 C   0  0  0  0  0  0  0  0  0  0  0  0
   12.4439   -5.4895    0.0000 C   0  0  0  0  0  0  0  0  0  0  0  0
   11.7289   -5.0823    0.0000 C   0  0  0  0  0  0  0  0  0  0  0  0
   11.7350   -7.5578    0.0000 Cl  0  0  0  0  0  0  0  0  0  0  0  0
   13.1561   -5.0730    0.0000 C   0  0  0  0  0  0  0  0  0  0  0  0
   13.8728   -5.4815    0.0000 N   0  0  0  0  0  0  0  0  0  0  0  0
   13.1514   -4.2480    0.0000 O   0  0  0  0  0  0  0  0  0  0  0  0
    5.1611   -2.4074    0.0000 Cl  0  0  0  0  0  0  0  0  0  0  0  0
    6.9598   -2.4074    0.0000 Cl  0  0  0  0  0  0  0  0  0  0  0  0
 10 15  1  0  0  0  0
 11 12  1  0  0  0  0
 12 13  1  0  0  0  0
 13 14  1  0  0  0  0
 14 15  1  0  0  0  0
  1  2  1  0  0  0  0
 13 16  1  0  0  0  0
  7  8  2  0  0  0  0
 16 17  2  0  0  0  0
  3  4  1  0  0  0  0
 17 18  1  0  0  0  0
  7  9  1  0  0  0  0
 18 19  2  0  0  0  0
  4  5  2  0  0  0  0
 19 20  1  0  0  0  0
  9 10  1  0  0  0  0
 20 21  2  0  0  0  0
 21 16  1  0  0  0  0
 10 11  1  0  0  0  0
 18 22  1  0  0  0  0
  5  1  1  0  0  0  0
 20 23  1  0  0  0  0
  2  3  2  0  0  0  0
 23 24  1  0  0  0  0
  2  6  1  0  0  0  0
 23 25  2  0  0  0  0
  3 26  1  0  0  0  0
  5  7  1  0  0  0  0
  4 27  1  0  0  0  0
M  END
> <From> 
www.bindingDB.org

> <BindingDB Reactant_set_id>
50705124

> <Ligand InChI>
InChI=1S/C17H18Cl3N5O2/c1-8-13(19)14(20)15(22-8)17(27)23-10-2-4-25(5-3-10)12-7-9(16(21)26)6-11(18)24-12/h6-7,10,22H,2-5H2,1H3,(H2,21,26)(H,23,27)

> <Ligand InChI Key>
DDZQOAWVENUEIU-UHFFFAOYSA-N

> <BindingDB MonomerID>
50358846

> <BindingDB Ligand Name>
CHEMBL1923431

> <Target Name Assigned by Curator or DataSource>
DNA Gyrase Subunit B

> <Target Source Organism According to Curator or DataSource>
Staphylococcus aureus

> <Ki (nM)>


> <IC50 (nM)>
 30

> <Kd (nM)>


> <EC50 (nM)>


> <kon (M-1-s-1)>


> <koff (s-1)>


> <pH>


> <Temp C>


> <Curation/DataSource>
ChEMBL

> <Article DOI>
10.1016/j.bmcl.2011.10.010

> <PMID>
22041057

> <PubChem AID>


> <Patent Number>


> <Authors>
Sherer, BA; Hull, K; Green, O; Basarab, G; Hauck, S; Hill, P; Loch, JT; Mullen, G; Bist, S; Bryant, J; Boriack-Sjodin, A; Read, J; DeGrace, N; Uria-Nickelsen, M; Illingworth, RN; Eakin, AE

> <Institution>
AstraZeneca R&amp;D Boston

> <Link to Ligand in BindingDB>
http://www.bindingdb.org/bind/chemsearch/marvin/MolStructure.jsp?monomerid=50358846

> <Link to Ligand-Target Pair in BindingDB>
http://www.bindingdb.org/jsp/dbsearch/PrimarySearch_ki.jsp?energyterm=kJ/mole&tag=pol&polymerid=2626&target=DNA+Gyrase+Subunit+B&column=ki&startPg=0&Increment=50&submit=Search

> <Link to Ligand-Target Pair in BindingDB>
http://www.bindingdb.org/jsp/dbsearch/PrimarySearch_ki.jsp?energyterm=kJ/mole&tag=r21&monomerid=50358846&enzyme=DNA+Gyrase+Subunit+B&column=ki&startPg=0&Increment=50&submit=Search

> <Ligand HET ID in PDB>
087

> <PDB ID(s) for Ligand-Target Complex>
3U2K

> <PubChem CID>
11212591

> <PubChem SID>
136962870

> <ChEBI ID of Ligand>


> <ChEMBL ID of Ligand>
CHEMBL1923431

> <DrugBank ID of Ligand>


> <IUPHAR_GRAC ID of Ligand>


> <KEGG ID of Ligand>


> <ZINC ID of Ligand>
ZINC73170231

> <Number of Protein Chains in Target (>1 implies a multichain complex)>
1

> <BindingDB Target Chain Sequence>
MVTALSDVNNTDNYGAGQIQVLEGLEAVRKRPGMYIGSTSERGLHHLVWEIVDNSIDEALAGYANQIEVVIEKDNWIKVTDNGRGIPVDIQEKMGRPAVEVILTVLHAGGKFGGGGYKVSGGLHGVGSSVVNALSQDLEVYVHRNETIYHQAYKKGVPQFDLKEVGTTDKTGTVIRFKADGEIFTETTVYNYETLQQRIRELAFLNKGIQITLRDERDEENVREDSYHYEGGIKSYVELLNENKEPIHDEPIYIHQSKDDIEVEIAIQYNSGYATNLLTYANNIHTYEGGTHEDGFKRALTRVLNSYGLSSKIMKEEKDRLSGEDTREGMTAIISIKHGDPQFEGQTKTKLGNSEVRQVVDKLFSEHFERFLYENPQVARTVVEKGIMAARARVAAKKAREVTRRKSALDVASLPGKLADCSSKSPEECEIFLVEGDSAGGSTKSGRDSRTQAILPLRGKILNVEKARLDRILNNNEIRQMITAFGTGIGGDFDLAKARYHKIVIMTDADVDGAHIRTLLLTFFYRFMRPLIEAGYVYIAQPPLYKLTQGKQKYYVYNDRELDKLKSELNPTPKWSIARYKGLGEMNADQLWETTMNPEHRALLQVKLEDAIEADQTFEMLMGDVVENRRQFIEDNAVYANLDF

> <PDB ID(s) of Target Chain>


> <UniProt (SwissProt) Recommended Name of Target Chain>
DNA gyrase subunit B

> <UniProt (SwissProt) Entry Name of Target Chain>
GYRB_STAAU

> <UniProt (SwissProt) Primary ID of Target Chain>
P0A0K8

> <UniProt (SwissProt) Secondary ID(s) of Target Chain>
P20832

> <UniProt (SwissProt) Alternative ID(s) of Target Chain>


> <UniProt (TrEMBL) Submitted Name of Target Chain>


> <UniProt (TrEMBL) Entry Name of Target Chain>


> <UniProt (TrEMBL) Primary ID of Target Chain>


> <UniProt (TrEMBL) Secondary ID(s) of Target Chain>


> <UniProt (TrEMBL) Alternative ID(s) of Target Chain>


$$$$

  SciTegic09291413392D

 27 30  0  0  0  0            999 V2000
    7.6794  -22.3613    0.0000 C   0  0
    7.6782  -23.1808    0.0000 C   0  0
    8.3863  -23.5898    0.0000 N   0  0
    8.3845  -21.9524    0.0000 C   0  0
    9.0931  -22.3577    0.0000 C   0  0
    9.0979  -23.1808    0.0000 C   0  0
    9.8823  -23.4307    0.0000 S   0  0
   10.3623  -22.7618    0.0000 C   0  0
    9.8745  -22.0988    0.0000 N   0  0
    6.9736  -21.9530    0.0000 C   0  0
    6.9748  -21.1347    0.0000 C   0  0
    6.2678  -20.7264    0.0000 C   0  0
    5.5592  -21.1352    0.0000 C   0  0
    5.5620  -21.9566    0.0000 N   0  0
   11.1795  -22.7570    0.0000 N   0  0
   11.5839  -22.0469    0.0000 C   0  0
   12.4011  -22.0421    0.0000 N   0  0
   11.1711  -21.3416    0.0000 O   0  0
   12.8055  -21.3320    0.0000 C   0  0
   13.6226  -21.3271    0.0000 C   0  0
    6.9702  -23.5889    0.0000 N   0  0
    6.2634  -22.3625    0.0000 C   0  0
    6.9695  -24.4060    0.0000 C   0  0  1  0  0  0
    6.3117  -24.8856    0.0000 C   0  0
    6.5636  -25.6630    0.0000 C   0  0
    7.3808  -25.6636    0.0000 O   0  0
    7.6338  -24.8866    0.0000 C   0  0
  1  2  2  0
  2  3  1  0
  3  6  2  0
  5  4  2  0
  4  1  1  0
  5  6  1  0
  6  7  1  0
  7  8  1  0
  8  9  2  0
  9  5  1  0
 10 11  2  0
 11 12  1  0
 12 13  2  0
 13 14  1  0
 14 22  2  0
 22 10  1  0
  1 10  1  0
  8 15  1  0
 15 16  1  0
 16 17  1  0
 16 18  2  0
 17 19  1  0
 19 20  1  0
  2 21  1  0
 23 21  1  6
 23 24  1  0
 24 25  1  0
 25 26  1  0
 26 27  1  0
 27 23  1  0
M  END
> <From> 
www.bindingDB.org

> <BindingDB Reactant_set_id>
50089913

> <Ligand InChI>
InChI=1S/C18H20N6O2S/c1-2-20-17(25)24-18-22-14-8-13(11-4-3-6-19-9-11)15(23-16(14)27-18)21-12-5-7-26-10-12/h3-4,6,8-9,12H,2,5,7,10H2,1H3,(H,21,23)(H2,20,22,24,25)/t12-/m0/s1

> <Ligand InChI Key>
WWAUHTCZLNXGEF-LBPRGKRZSA-N

> <BindingDB MonomerID>
50010355

> <BindingDB Ligand Name>
CHEMBL3263599

> <Target Name Assigned by Curator or DataSource>
DNA gyrase subunit B

> <Target Source Organism According to Curator or DataSource>


> <Ki (nM)>


> <IC50 (nM)>
 30

> <Kd (nM)>


> <EC50 (nM)>


> <kon (M-1-s-1)>


> <koff (s-1)>


> <pH>


> <Temp C>


> <Curation/DataSource>
ChEMBL

> <Article DOI>
10.1021/jm401268f

> <PMID>
24088190

> <PubChem AID>


> <Patent Number>


> <Authors>
Ahuja, V; Ahuja, V; Basavarajappa, H; Basavarajappa, H; P, SH; P, SH; Boriack-Sjodin, PA; Boriack-Sjodin, PA; McKinney, D; McKinney, D; Ganguly, S; Ganguly, S; Kranthi, U; Kranthi, U; Gaonkar, S; Gaonkar, S; Jena, Lk; Jena, Lk; Ghorpade, SR; Ghorpade, SR; Ghosh, A; Ghosh, A; Barde, S; Barde, S; Kale, MG; Kale, MG; Koushik, K; Koushik, K; Kumar, CN; Kumar, CN; Manjunatha, MR; Manjunatha, MR; Ogg, D; Ogg, D; Panduga, V; Panduga, V; Ramya, VK; Ramya, VK; Reddy, J; Reddy, J; Kumar, KN; Kumar, KN; Giridhar, J; Giridhar, J; Rudrapatna, S; Rudrapatna, S; Sharma, S; Sharma, S; Tucker, JA; Tucker, JA; Vachaspati, P; Vachaspati, P; Waterson, D; Waterson, D; de Sousa, SM; de Sousa, SM

> <Institution>
AstraZeneca India Pvt. Ltd.

> <Link to Ligand in BindingDB>
http://www.bindingdb.org/bind/chemsearch/marvin/MolStructure.jsp?monomerid=50010355

> <Link to Ligand-Target Pair in BindingDB>
http://www.bindingdb.org/jsp/dbsearch/PrimarySearch_ki.jsp?energyterm=kJ/mole&tag=pol&polymerid=50006452&target=DNA+gyrase+subunit+B&column=ki&startPg=0&Increment=50&submit=Search

> <Link to Ligand-Target Pair in BindingDB>
http://www.bindingdb.org/jsp/dbsearch/PrimarySearch_ki.jsp?energyterm=kJ/mole&tag=r21&monomerid=50010355&enzyme=DNA+gyrase+subunit+B&column=ki&startPg=0&Increment=50&submit=Search

> <Ligand HET ID in PDB>


> <PDB ID(s) for Ligand-Target Complex>


> <PubChem CID>
72713300

> <PubChem SID>
103923169

> <ChEBI ID of Ligand>


> <ChEMBL ID of Ligand>
CHEMBL3263599

> <DrugBank ID of Ligand>


> <IUPHAR_GRAC ID of Ligand>


> <KEGG ID of Ligand>


> <ZINC ID of Ligand>
ZINC13446663

> <Number of Protein Chains in Target (>1 implies a multichain complex)>
1

> <BindingDB Target Chain Sequence>
MAAQKNNAPKEYGADSITILEGLEAVRKRPGMYIGSTGERGLHHLIWEVVDNAVDEAMAGFATRVDVKIHADGSVEVRDDGRGIPVEMHATGMPTIDVVMTQLHAGGKFDGETYAVSGGLHGVGVSVVNALSTRLEATVLRDGYEWFQYYDRSVPGKLKQGGETKETGTTIRFWADPEIFETTDYNFETVARRLQEMAFLNKGLTIELTDERVTAEEVVDDVVKDTAEAPKTADEKAAEATGPSKVKHRVFHYPGGLVDYVKHINRTKTPIQQSIIDFDGKGPGHEVEIAMQWNAGYSESVHTFANTINTHEGGTHEEGFRAALTSVVNRYAKDKKLLKDKDPNLTGDDIREGLAAVISVKVAEPQFEGQTKTKLGNTEVKSFVQKICNEQLQHWFEANPAEAKTVVNKAVSSAQARIAARKARELVRRKSATDIGGLPGKLADCRSTDPSKSELYVVEGDSAGGSAKSGRDSMFQAILPLRGKIINVEKARIDRVLKNTEVQSIITALGTGIHDEFDISKLRYHKIVLMADADVDGQHISTLLLTLLFRFMKPLVENGHIFLAQPPLYKLKWQRSEPEFAYSDRERDGLLEAGRAAGKKINVDDGIQRYKGLGEMDAKELWETTMDPSVRVLRQVTLDDAAAADELFSILMGEDVEARRSFITRNAKDVRFLDV

> <PDB ID(s) of Target Chain>
4BAE

> <UniProt (SwissProt) Recommended Name of Target Chain>
DNA gyrase subunit B

> <UniProt (SwissProt) Entry Name of Target Chain>
GYRB_MYCSM

> <UniProt (SwissProt) Primary ID of Target Chain>
P0C559

> <UniProt (SwissProt) Secondary ID(s) of Target Chain>
P48355,Q59555

> <UniProt (SwissProt) Alternative ID(s) of Target Chain>


> <UniProt (TrEMBL) Submitted Name of Target Chain>


> <UniProt (TrEMBL) Entry Name of Target Chain>


> <UniProt (TrEMBL) Primary ID of Target Chain>


> <UniProt (TrEMBL) Secondary ID(s) of Target Chain>


> <UniProt (TrEMBL) Alternative ID(s) of Target Chain>


$$$$

  SciTegic09291413392D

 28 31  0  0  0  0            999 V2000
    3.5026  -22.2457    0.0000 C   0  0
    3.5015  -23.0653    0.0000 C   0  0
    4.2095  -23.4742    0.0000 N   0  0
    4.2077  -21.8369    0.0000 C   0  0
    4.9163  -22.2421    0.0000 C   0  0
    4.9212  -23.0653    0.0000 C   0  0
    5.7055  -23.3151    0.0000 S   0  0
    6.1855  -22.6463    0.0000 C   0  0
    5.6977  -21.9832    0.0000 N   0  0
    2.7969  -21.8375    0.0000 C   0  0
    2.7980  -21.0192    0.0000 C   0  0
    2.0910  -20.6108    0.0000 C   0  0
    1.3824  -21.0196    0.0000 C   0  0
    1.3853  -21.8411    0.0000 N   0  0
    7.0027  -22.6415    0.0000 N   0  0
    7.4071  -21.9313    0.0000 C   0  0
    8.2243  -21.9265    0.0000 N   0  0
    6.9944  -21.2261    0.0000 O   0  0
    8.6287  -21.2164    0.0000 C   0  0
    9.4459  -21.2116    0.0000 C   0  0
    2.7934  -23.4733    0.0000 N   0  0
    2.0867  -22.2469    0.0000 C   0  0
    2.7928  -24.2905    0.0000 C   0  0
    2.0853  -24.6976    0.0000 C   0  0
    2.0827  -25.5113    0.0000 C   0  0
    2.7883  -25.9242    0.0000 O   0  0
    3.4981  -25.5174    0.0000 C   0  0
    3.5024  -24.6976    0.0000 C   0  0
  1  2  2  0
  2  3  1  0
  3  6  2  0
  5  4  2  0
  4  1  1  0
  5  6  1  0
  6  7  1  0
  7  8  1  0
  8  9  2  0
  9  5  1  0
 10 11  2  0
 11 12  1  0
 12 13  2  0
 13 14  1  0
 14 22  2  0
 22 10  1  0
  1 10  1  0
  8 15  1  0
 15 16  1  0
 16 17  1  0
 16 18  2  0
 17 19  1  0
 19 20  1  0
  2 21  1  0
 21 23  1  0
 23 24  1  0
 23 28  1  0
 24 25  1  0
 25 26  1  0
 26 27  1  0
 27 28  1  0
M  END
> <From> 
www.bindingDB.org

> <BindingDB Reactant_set_id>
50089912

> <Ligand InChI>
InChI=1S/C19H22N6O2S/c1-2-21-18(26)25-19-23-15-10-14(12-4-3-7-20-11-12)16(24-17(15)28-19)22-13-5-8-27-9-6-13/h3-4,7,10-11,13H,2,5-6,8-9H2,1H3,(H,22,24)(H2,21,23,25,26)

> <Ligand InChI Key>
KLTOPTODXZSKCO-UHFFFAOYSA-N

> <BindingDB MonomerID>
50010354

> <BindingDB Ligand Name>
CHEMBL3263598

> <Target Name Assigned by Curator or DataSource>
DNA gyrase subunit B

> <Target Source Organism According to Curator or DataSource>


> <Ki (nM)>


> <IC50 (nM)>
 30

> <Kd (nM)>


> <EC50 (nM)>


> <kon (M-1-s-1)>


> <koff (s-1)>


> <pH>


> <Temp C>


> <Curation/DataSource>
ChEMBL

> <Article DOI>
10.1021/jm401268f

> <PMID>
24088190

> <PubChem AID>


> <Patent Number>


> <Authors>
Ahuja, V; Ahuja, V; Basavarajappa, H; Basavarajappa, H; P, SH; P, SH; Boriack-Sjodin, PA; Boriack-Sjodin, PA; McKinney, D; McKinney, D; Ganguly, S; Ganguly, S; Kranthi, U; Kranthi, U; Gaonkar, S; Gaonkar, S; Jena, Lk; Jena, Lk; Ghorpade, SR; Ghorpade, SR; Ghosh, A; Ghosh, A; Barde, S; Barde, S; Kale, MG; Kale, MG; Koushik, K; Koushik, K; Kumar, CN; Kumar, CN; Manjunatha, MR; Manjunatha, MR; Ogg, D; Ogg, D; Panduga, V; Panduga, V; Ramya, VK; Ramya, VK; Reddy, J; Reddy, J; Kumar, KN; Kumar, KN; Giridhar, J; Giridhar, J; Rudrapatna, S; Rudrapatna, S; Sharma, S; Sharma, S; Tucker, JA; Tucker, JA; Vachaspati, P; Vachaspati, P; Waterson, D; Waterson, D; de Sousa, SM; de Sousa, SM

> <Institution>
AstraZeneca India Pvt. Ltd.

> <Link to Ligand in BindingDB>
http://www.bindingdb.org/bind/chemsearch/marvin/MolStructure.jsp?monomerid=50010354

> <Link to Ligand-Target Pair in BindingDB>
http://www.bindingdb.org/jsp/dbsearch/PrimarySearch_ki.jsp?energyterm=kJ/mole&tag=pol&polymerid=50006452&target=DNA+gyrase+subunit+B&column=ki&startPg=0&Increment=50&submit=Search

> <Link to Ligand-Target Pair in BindingDB>
http://www.bindingdb.org/jsp/dbsearch/PrimarySearch_ki.jsp?energyterm=kJ/mole&tag=r21&monomerid=50010354&enzyme=DNA+gyrase+subunit+B&column=ki&startPg=0&Increment=50&submit=Search

> <Ligand HET ID in PDB>


> <PDB ID(s) for Ligand-Target Complex>


> <PubChem CID>
72713299

> <PubChem SID>
103923168

> <ChEBI ID of Ligand>


> <ChEMBL ID of Ligand>
CHEMBL3263598

> <DrugBank ID of Ligand>


> <IUPHAR_GRAC ID of Ligand>


> <KEGG ID of Ligand>


> <ZINC ID of Ligand>
ZINC13446791

> <Number of Protein Chains in Target (>1 implies a multichain complex)>
1

> <BindingDB Target Chain Sequence>
MAAQKNNAPKEYGADSITILEGLEAVRKRPGMYIGSTGERGLHHLIWEVVDNAVDEAMAGFATRVDVKIHADGSVEVRDDGRGIPVEMHATGMPTIDVVMTQLHAGGKFDGETYAVSGGLHGVGVSVVNALSTRLEATVLRDGYEWFQYYDRSVPGKLKQGGETKETGTTIRFWADPEIFETTDYNFETVARRLQEMAFLNKGLTIELTDERVTAEEVVDDVVKDTAEAPKTADEKAAEATGPSKVKHRVFHYPGGLVDYVKHINRTKTPIQQSIIDFDGKGPGHEVEIAMQWNAGYSESVHTFANTINTHEGGTHEEGFRAALTSVVNRYAKDKKLLKDKDPNLTGDDIREGLAAVISVKVAEPQFEGQTKTKLGNTEVKSFVQKICNEQLQHWFEANPAEAKTVVNKAVSSAQARIAARKARELVRRKSATDIGGLPGKLADCRSTDPSKSELYVVEGDSAGGSAKSGRDSMFQAILPLRGKIINVEKARIDRVLKNTEVQSIITALGTGIHDEFDISKLRYHKIVLMADADVDGQHISTLLLTLLFRFMKPLVENGHIFLAQPPLYKLKWQRSEPEFAYSDRERDGLLEAGRAAGKKINVDDGIQRYKGLGEMDAKELWETTMDPSVRVLRQVTLDDAAAADELFSILMGEDVEARRSFITRNAKDVRFLDV

> <PDB ID(s) of Target Chain>
4BAE

> <UniProt (SwissProt) Recommended Name of Target Chain>
DNA gyrase subunit B

> <UniProt (SwissProt) Entry Name of Target Chain>
GYRB_MYCSM

> <UniProt (SwissProt) Primary ID of Target Chain>
P0C559

> <UniProt (SwissProt) Secondary ID(s) of Target Chain>
P48355,Q59555

> <UniProt (SwissProt) Alternative ID(s) of Target Chain>


> <UniProt (TrEMBL) Submitted Name of Target Chain>


> <UniProt (TrEMBL) Entry Name of Target Chain>


> <UniProt (TrEMBL) Primary ID of Target Chain>


> <UniProt (TrEMBL) Secondary ID(s) of Target Chain>


> <UniProt (TrEMBL) Alternative ID(s) of Target Chain>


$$$$

  SciTegic09261414462D

 30 32  0  0  0  0            999 V2000
    5.1783   -1.3289    0.0000 C   0  0
    5.1771   -2.1485    0.0000 C   0  0
    5.8852   -2.5574    0.0000 C   0  0
    6.5948   -2.1480    0.0000 C   0  0
    6.5920   -1.3253    0.0000 C   0  0
    5.8834   -0.9201    0.0000 N   0  0
    4.4704   -0.9205    0.0000 N   0  0
    3.7628   -1.3293    0.0000 C   0  0
    3.0550   -0.9208    0.0000 N   0  0
    3.7630   -2.1465    0.0000 O   0  0
    2.3474   -1.3296    0.0000 C   0  0
    1.6396   -0.9212    0.0000 C   0  0
    7.2997   -2.5547    0.0000 C   0  0
    7.2996   -3.3730    0.0000 C   0  0
    8.0071   -3.7804    0.0000 N   0  0
    8.7152   -3.3707    0.0000 C   0  0
    8.7112   -2.5493    0.0000 C   0  0
    8.0032   -2.1455    0.0000 C   0  0
    9.4169   -2.1371    0.0000 C   0  0
   10.1266   -2.5420    0.0000 O   0  0
    9.4127   -1.3199    0.0000 O   0  0
    5.8836   -3.3736    0.0000 C   0  0
    5.2224   -3.8538    0.0000 N   0  0
    5.4747   -4.6310    0.0000 C   0  0
    6.2920   -4.6312    0.0000 C   0  0
    6.5446   -3.8541    0.0000 S   0  0
    4.9942   -5.2920    0.0000 C   0  0
    4.1815   -5.2064    0.0000 C   0  0
    5.3264   -6.0387    0.0000 C   0  0
    4.5812   -5.9969    0.0000 C   0  0
  1  2  2  0
  2  3  1  0
  3  4  2  0
  4  5  1  0
  5  6  2  0
  6  1  1  0
  1  7  1  0
  7  8  1  0
  8  9  1  0
  8 10  2  0
  9 11  1  0
 11 12  1  0
 13 14  2  0
 14 15  1  0
 15 16  2  0
 16 17  1  0
 17 18  2  0
 18 13  1  0
  4 13  1  0
 17 19  1  0
 19 20  1  0
 19 21  2  0
 22 23  2  0
 23 24  1  0
 24 25  2  0
 25 26  1  0
 26 22  1  0
  3 22  1  0
 24 27  1  0
 27 28  1  0
 27 29  1  0
 27 30  1  0
M  END
> <From> 
www.bindingDB.org

> <BindingDB Reactant_set_id>
50083268

> <Ligand InChI>
InChI=1S/C21H23N5O3S/c1-5-23-20(29)26-17-7-14(18-25-16(11-30-18)21(2,3)4)15(10-24-17)12-6-13(19(27)28)9-22-8-12/h6-11H,5H2,1-4H3,(H,27,28)(H2,23,24,26,29)

> <Ligand InChI Key>
OMJBZCVTMXZQCE-UHFFFAOYSA-N

> <BindingDB MonomerID>
50006564

> <BindingDB Ligand Name>
CHEMBL3235084

> <Target Name Assigned by Curator or DataSource>
DNA Gyrase Subunit B

> <Target Source Organism According to Curator or DataSource>
Staphylococcus aureus

> <Ki (nM)>


> <IC50 (nM)>
 30

> <Kd (nM)>


> <EC50 (nM)>


> <kon (M-1-s-1)>


> <koff (s-1)>


> <pH>


> <Temp C>


> <Curation/DataSource>
ChEMBL

> <Article DOI>
10.1021/jm401208b

> <PMID>
24098982

> <PubChem AID>


> <Patent Number>


> <Authors>
Basarab, GS; Basarab, GS; Boriack-Sjodin, PA; Boriack-Sjodin, PA; Illingworth, R; Illingworth, R; Manchester, JI; Manchester, JI; Dangel, B; Dangel, B; Sriram, S; Sriram, S

> <Institution>
AstraZeneca R&amp;D Boston

> <Link to Ligand in BindingDB>
http://www.bindingdb.org/bind/chemsearch/marvin/MolStructure.jsp?monomerid=50006564

> <Link to Ligand-Target Pair in BindingDB>
http://www.bindingdb.org/jsp/dbsearch/PrimarySearch_ki.jsp?energyterm=kJ/mole&tag=pol&polymerid=2626&target=DNA+Gyrase+Subunit+B&column=ki&startPg=0&Increment=50&submit=Search

> <Link to Ligand-Target Pair in BindingDB>
http://www.bindingdb.org/jsp/dbsearch/PrimarySearch_ki.jsp?energyterm=kJ/mole&tag=r21&monomerid=50006564&enzyme=DNA+Gyrase+Subunit+B&column=ki&startPg=0&Increment=50&submit=Search

> <Ligand HET ID in PDB>


> <PDB ID(s) for Ligand-Target Complex>


> <PubChem CID>
25126469

> <PubChem SID>
103919965

> <ChEBI ID of Ligand>


> <ChEMBL ID of Ligand>
CHEMBL3235084

> <DrugBank ID of Ligand>


> <IUPHAR_GRAC ID of Ligand>


> <KEGG ID of Ligand>


> <ZINC ID of Ligand>
ZINC26384118

> <Number of Protein Chains in Target (>1 implies a multichain complex)>
1

> <BindingDB Target Chain Sequence>
MVTALSDVNNTDNYGAGQIQVLEGLEAVRKRPGMYIGSTSERGLHHLVWEIVDNSIDEALAGYANQIEVVIEKDNWIKVTDNGRGIPVDIQEKMGRPAVEVILTVLHAGGKFGGGGYKVSGGLHGVGSSVVNALSQDLEVYVHRNETIYHQAYKKGVPQFDLKEVGTTDKTGTVIRFKADGEIFTETTVYNYETLQQRIRELAFLNKGIQITLRDERDEENVREDSYHYEGGIKSYVELLNENKEPIHDEPIYIHQSKDDIEVEIAIQYNSGYATNLLTYANNIHTYEGGTHEDGFKRALTRVLNSYGLSSKIMKEEKDRLSGEDTREGMTAIISIKHGDPQFEGQTKTKLGNSEVRQVVDKLFSEHFERFLYENPQVARTVVEKGIMAARARVAAKKAREVTRRKSALDVASLPGKLADCSSKSPEECEIFLVEGDSAGGSTKSGRDSRTQAILPLRGKILNVEKARLDRILNNNEIRQMITAFGTGIGGDFDLAKARYHKIVIMTDADVDGAHIRTLLLTFFYRFMRPLIEAGYVYIAQPPLYKLTQGKQKYYVYNDRELDKLKSELNPTPKWSIARYKGLGEMNADQLWETTMNPEHRALLQVKLEDAIEADQTFEMLMGDVVENRRQFIEDNAVYANLDF

> <PDB ID(s) of Target Chain>


> <UniProt (SwissProt) Recommended Name of Target Chain>
DNA gyrase subunit B

> <UniProt (SwissProt) Entry Name of Target Chain>
GYRB_STAAU

> <UniProt (SwissProt) Primary ID of Target Chain>
P0A0K8

> <UniProt (SwissProt) Secondary ID(s) of Target Chain>
P20832

> <UniProt (SwissProt) Alternative ID(s) of Target Chain>


> <UniProt (TrEMBL) Submitted Name of Target Chain>


> <UniProt (TrEMBL) Entry Name of Target Chain>


> <UniProt (TrEMBL) Primary ID of Target Chain>


> <UniProt (TrEMBL) Secondary ID(s) of Target Chain>


> <UniProt (TrEMBL) Alternative ID(s) of Target Chain>


$$$$

  Mrv0541 11231413392D          

 47 51  0  0  0  0            999 V2000
   -0.8765   -8.1532    0.0000 C   0  0  0  0  0  0  0  0  0  0  0  0
   -1.6024   -7.7517    0.0000 C   0  0  1  0  0  0  0  0  0  0  0  0
   -2.3091   -8.1772    0.0000 C   0  0  2  0  0  0  0  0  0  0  0  0
   -2.2962   -9.0062    0.0000 C   0  0  2  0  0  0  0  0  0  0  0  0
   -1.5703   -9.4077    0.0000 C   0  0  1  0  0  0  0  0  0  0  0  0
   -0.8573   -8.9803    0.0000 O   0  0  0  0  0  0  0  0  0  0  0  0
   -1.5560  -10.2326    0.0000 O   0  0  0  0  0  0  0  0  0  0  0  0
   -0.8363  -10.6438    0.0000 C   0  0  0  0  0  0  0  0  0  0  0  0
   -0.8370  -11.4684    0.0000 C   0  0  0  0  0  0  0  0  0  0  0  0
   -0.1214  -10.2296    0.0000 C   0  0  0  0  0  0  0  0  0  0  0  0
    0.5931  -10.6472    0.0000 C   0  0  0  0  0  0  0  0  0  0  0  0
    0.5912  -11.4720    0.0000 C   0  0  0  0  0  0  0  0  0  0  0  0
   -0.1241  -11.8835    0.0000 C   0  0  0  0  0  0  0  0  0  0  0  0
   -0.1253  -12.7042    0.0000 O   0  0  0  0  0  0  0  0  0  0  0  0
    0.5871  -13.1196    0.0000 C   0  0  0  0  0  0  0  0  0  0  0  0
    1.3024  -12.7080    0.0000 C   0  0  0  0  0  0  0  0  0  0  0  0
    1.3052  -11.8811    0.0000 C   0  0  0  0  0  0  0  0  0  0  0  0
    2.0198  -11.4687    0.0000 O   0  0  0  0  0  0  0  0  0  0  0  0
    0.5848  -13.9445    0.0000 O   0  0  0  0  0  0  0  0  0  0  0  0
    2.0158  -13.1222    0.0000 N   0  0  0  0  0  0  0  0  0  0  0  0
    2.0138  -13.9472    0.0000 C   0  0  0  0  0  0  0  0  0  0  0  0
    1.2982  -14.3580    0.0000 O   0  0  0  0  0  0  0  0  0  0  0  0
   -0.0489   -8.1344    0.0000 C   0  0  0  0  0  0  0  0  0  0  0  0
   -0.8873   -7.3302    0.0000 C   0  0  0  0  0  0  0  0  0  0  0  0
   -1.6174   -6.9269    0.0000 O   0  0  0  0  0  0  0  0  0  0  0  0
   -0.9107   -6.5014    0.0000 C   0  0  0  0  0  0  0  0  0  0  0  0
   -3.0305   -7.7769    0.0000 O   0  0  0  0  0  0  0  0  0  0  0  0
   -3.0444   -6.9521    0.0000 C   0  0  0  0  0  0  0  0  0  0  0  0
   -3.7655   -6.5514    0.0000 C   0  0  0  0  0  0  0  0  0  0  0  0
   -2.3372   -6.5276    0.0000 O   0  0  0  0  0  0  0  0  0  0  0  0
   -3.0036   -9.4307    0.0000 O   0  0  0  0  0  0  0  0  0  0  0  0
   -4.0013   -5.7579    0.0000 C   0  0  0  0  0  0  0  0  0  0  0  0
   -4.8260   -5.7348    0.0000 C   0  0  0  0  0  0  0  0  0  0  0  0
   -5.1027   -6.5121    0.0000 C   0  0  0  0  0  0  0  0  0  0  0  0
   -4.4491   -7.0153    0.0000 N   0  0  0  0  0  0  0  0  0  0  0  0
   -5.8208   -6.9162    0.0000 C   0  0  0  0  0  0  0  0  0  0  0  0
   -1.5524  -11.8792    0.0000 Cl  0  0  0  0  0  0  0  0  0  0  0  0
    2.7272  -14.3616    0.0000 C   0  0  0  0  0  0  0  0  0  0  0  0
    2.7251  -15.1866    0.0000 C   0  0  0  0  0  0  0  0  0  0  0  0
    3.4386  -15.6008    0.0000 C   0  0  0  0  0  0  0  0  0  0  0  0
    3.4327  -16.4234    0.0000 C   0  0  0  0  0  0  0  0  0  0  0  0
    4.1453  -16.8376    0.0000 C   0  0  0  0  0  0  0  0  0  0  0  0
    4.8618  -16.4268    0.0000 C   0  0  0  0  0  0  0  0  0  0  0  0
    4.8612  -15.5975    0.0000 C   0  0  0  0  0  0  0  0  0  0  0  0
    4.1481  -15.1870    0.0000 C   0  0  0  0  0  0  0  0  0  0  0  0
    5.5757  -16.8402    0.0000 O   0  0  0  0  0  0  0  0  0  0  0  0
    5.5753  -15.1843    0.0000 Cl  0  0  0  0  0  0  0  0  0  0  0  0
 11 10  1  0  0  0  0
  1 23  1  0  0  0  0
 11 12  2  0  0  0  0
  1 24  1  0  0  0  0
  3  4  1  0  0  0  0
  2 25  1  1  0  0  0
 12 13  1  0  0  0  0
 25 26  1  0  0  0  0
  4  5  1  0  0  0  0
  3 27  1  6  0  0  0
  5  6  1  0  0  0  0
 27 28  1  0  0  0  0
 28 29  1  0  0  0  0
  5  7  1  1  0  0  0
 28 30  2  0  0  0  0
  2  1  1  0  0  0  0
  4 31  1  6  0  0  0
 29 32  2  0  0  0  0
  7  8  1  0  0  0  0
 12 17  1  0  0  0  0
 13 14  1  0  0  0  0
 14 15  1  0  0  0  0
 32 33  1  0  0  0  0
 33 34  2  0  0  0  0
 34 35  1  0  0  0  0
 35 29  1  0  0  0  0
 15 16  1  0  0  0  0
 34 36  1  0  0  0  0
 16 17  2  0  0  0  0
  9 37  1  0  0  0  0
  8  9  1  0  0  0  0
 21 38  1  0  0  0  0
 17 18  1  0  0  0  0
 38 39  2  0  0  0  0
  1  6  1  0  0  0  0
 39 40  1  0  0  0  0
 15 19  2  0  0  0  0
 40 41  2  0  0  0  0
  3  2  1  0  0  0  0
 41 42  1  0  0  0  0
 16 20  1  0  0  0  0
 42 43  2  0  0  0  0
  8 10  2  0  0  0  0
 43 44  1  0  0  0  0
 20 21  1  0  0  0  0
 44 45  2  0  0  0  0
 45 40  1  0  0  0  0
  9 13  2  0  0  0  0
 43 46  1  0  0  0  0
 21 22  2  0  0  0  0
 44 47  1  0  0  0  0
M  END
> <From> 
www.bindingDB.org

> <BindingDB Reactant_set_id>
50607701

> <Ligand InChI>
InChI=1S/C32H30Cl2N2O11/c1-14-5-9-18(35-14)29(41)46-27-25(40)31(47-32(2,3)28(27)43-4)44-20-11-8-16-24(39)23(30(42)45-26(16)22(20)34)36-21(38)12-7-15-6-10-19(37)17(33)13-15/h5-13,25,27-28,31,35,37,39-40H,1-4H3,(H,36,38)/b12-7+/t25-,27+,28-,31-/m1/s1

> <Ligand InChI Key>
PXYJHQPQHPIFEE-RGOARWCYSA-N

> <BindingDB MonomerID>
50330307

> <BindingDB Ligand Name>
(3R,4S,5R,6S)-6-(8-chloro-3-((E)-3-(3-chloro-4-hydroxyphenyl)acrylamido)-4-hydroxy-2-oxo-2H-chromen-7-yloxy)-5-hydroxy-3-methoxy-2,2-dimethyltetrahydro-2H-pyran-4-yl 5-methyl-1H-pyrrole-2-carboxylate::CHEMBL1275886

> <Target Name Assigned by Curator or DataSource>
DNA Gyrase Subunit B

> <Target Source Organism According to Curator or DataSource>
Escherichia coli

> <Ki (nM)>


> <IC50 (nM)>
 32

> <Kd (nM)>


> <EC50 (nM)>


> <kon (M-1-s-1)>


> <koff (s-1)>


> <pH>


> <Temp C>


> <Curation/DataSource>
ChEMBL

> <Article DOI>
10.1128/AAC.01235-07

> <PMID>
18347114

> <PubChem AID>


> <Patent Number>


> <Authors>
Anderle, C; Stieger, M; Burrell, M; Reinelt, S; Maxwell, A; Page, M; Heide, L

> <Institution>
Universit&#228;t T&#252;bingen

> <Link to Ligand in BindingDB>
http://www.bindingdb.org/bind/chemsearch/marvin/MolStructure.jsp?monomerid=50330307

> <Link to Ligand-Target Pair in BindingDB>
http://www.bindingdb.org/jsp/dbsearch/PrimarySearch_ki.jsp?energyterm=kJ/mole&tag=pol&polymerid=2630&target=DNA+Gyrase+Subunit+B&column=ki&startPg=0&Increment=50&submit=Search

> <Link to Ligand-Target Pair in BindingDB>
http://www.bindingdb.org/jsp/dbsearch/PrimarySearch_ki.jsp?energyterm=kJ/mole&tag=r21&monomerid=50330307&enzyme=DNA+Gyrase+Subunit+B&column=ki&startPg=0&Increment=50&submit=Search

> <Ligand HET ID in PDB>


> <PDB ID(s) for Ligand-Target Complex>


> <PubChem CID>
54695812

> <PubChem SID>
123109422

> <ChEBI ID of Ligand>


> <ChEMBL ID of Ligand>
CHEMBL1275886

> <DrugBank ID of Ligand>


> <IUPHAR_GRAC ID of Ligand>


> <KEGG ID of Ligand>


> <ZINC ID of Ligand>
ZINC72138086

> <Number of Protein Chains in Target (>1 implies a multichain complex)>
1

> <BindingDB Target Chain Sequence>
MSNSYDSSSIKVLKGLDAVRKRPGMYIGDTDDGTGLHHMVFEVVDNAIDEALAGHCKEII
VTIHADNSVSVQDDGRGIPTGIHPEEGVSAAEVIMTVLHAGGKFDDNSYKVSGGLHGVGV
SVVNALSQKLELVIQREGKIHRQIYEHGVPQAPLAVTGETEKTGTMVRFWPSLETFTNVT
EFEYEILAKRLRELSFLNSGVSIRLRDKRDGKEDHFHYEGGIKAFVEYLNKNKTPIHPNI
FYFSTEKDGIGVEVALQWNDGFQENIYCFTNNIPQRDGGTHLAGFRAAMTRTLNAYMDKE
GYSKKAKVSATGDDAREGLIAVVSVKVPDPKFSSQTKDKLVSSEVKSAVEQQMNELLAEY
LLENPTDAKIVVGKIIDAARAREAARRAREMTRRKGALDLAGLPGKLADCQERDPALSEL
YLVEGDSAGGSAKQGRNRKNQAILPLKGKILNVEKARFDKMLSSQEVATLITALGCGIGR
DEYNPDKLRYHSIIIMTDADVDGSHIRTLLLTFFYRQMPEIVERGHVYIAQPPLYKVKKG
KQEQYIKDDEAMDQYQISIALDGATLHTNASAPALAGEALEKLVSEYNATQKMINRMERR
YPKAMLKELIYQPTLTEADLSDEQTVTRWVNALVSELNDKEQHGSQWKFDVHTNAEQNLF
EPIVRVRTHGVDTDYPLDHEFITGGEYRRICTLGEKLRGLLEEDAFIERGERRQPVASFE
QALDWLVKESRRGLSIQRYKGLGEMNPEQLWETTMDPESRRMLRVTVKDAIAADQLFTTL
MGDAVEPRRAFIEENALKAANIDI

> <PDB ID(s) of Target Chain>
1KZN,3G7E,3NUH,4DUH,4HYP,4KFG,4PRV,4PRX,4PU9,4WUB,4WUC,4WUD,4XTJ,4ZVI,5L3J,5MMN,5MMO,5MMP,5Z4H,5Z4O,5Z9B,5Z9E,5Z9F,5Z9L,5Z9M,5Z9N,5Z9Q,6ENG,6F86,6F8J,6F94,6F96

> <UniProt (SwissProt) Recommended Name of Target Chain>
DNA gyrase subunit B

> <UniProt (SwissProt) Entry Name of Target Chain>
GYRB_ECOLI

> <UniProt (SwissProt) Primary ID of Target Chain>
P0AES6

> <UniProt (SwissProt) Secondary ID(s) of Target Chain>
O08438,P06982,Q2M811

> <UniProt (SwissProt) Alternative ID(s) of Target Chain>


> <UniProt (TrEMBL) Submitted Name of Target Chain>


> <UniProt (TrEMBL) Entry Name of Target Chain>


> <UniProt (TrEMBL) Primary ID of Target Chain>


> <UniProt (TrEMBL) Secondary ID(s) of Target Chain>


> <UniProt (TrEMBL) Alternative ID(s) of Target Chain>


$$$$

  SciTegic12211700282D

 27 29  0  0  0  0            999 V2000
    9.8501  -11.1393    0.0000 O   0  0
    9.4415  -10.4302    0.0000 C   0  0
    8.6243  -10.4302    0.0000 C   0  0
    8.1442   -9.7711    0.0000 C   0  0
    7.3670  -10.0216    0.0000 C   0  0
    6.7078   -9.5415    0.0000 Br  0  0
    7.3670  -10.8388    0.0000 C   0  0
    6.7078  -11.3190    0.0000 Br  0  0
    8.1442  -11.0935    0.0000 N   0  0
    9.8501   -9.7211    0.0000 N   0  0
   10.6673   -9.7211    0.0000 C   0  0
   11.1475  -10.3844    0.0000 N   0  0
   11.9247  -10.1297    0.0000 C   0  0
   12.6338  -10.5383    0.0000 C   0  0
   13.3429  -10.1297    0.0000 C   0  0
   13.3429   -9.3125    0.0000 C   0  0
   14.0478   -8.9040    0.0000 N   0  0
   14.7569   -9.3125    0.0000 C   0  0
   14.7569  -10.1297    0.0000 C   0  0
   15.4619  -10.5383    0.0000 C   0  0
   16.1710  -10.1297    0.0000 C   0  0
   16.8801  -10.5383    0.0000 O   0  0
   16.1710   -9.3125    0.0000 O   0  0
   15.4619   -8.9040    0.0000 O   0  0
   12.6338   -8.9040    0.0000 C   0  0
   11.9247   -9.3125    0.0000 C   0  0
   11.1475   -9.0620    0.0000 S   0  0
  1  2  2  0
  2  3  1  0
  3  4  2  0
  4  5  1  0
  5  6  1  0
  5  7  2  0
  7  8  1  0
  7  9  1  0
  3  9  1  0
  2 10  1  0
 10 11  1  0
 11 12  2  0
 12 13  1  0
 13 14  2  0
 14 15  1  0
 15 16  2  0
 16 17  1  0
 17 18  1  0
 18 19  1  0
 19 20  1  0
 20 21  1  0
 21 22  1  0
 21 23  2  0
 18 24  2  0
 16 25  1  0
 25 26  2  0
 13 26  1  0
 26 27  1  0
 11 27  1  0
M  END
> <From> 
www.bindingDB.org

> <BindingDB Reactant_set_id>
50524101

> <Ligand InChI>
InChI=1S/C16H12Br2N4O4S/c17-8-6-10(20-14(8)18)15(26)22-16-21-9-2-1-7(5-11(9)27-16)19-12(23)3-4-13(24)25/h1-2,5-6,20H,3-4H2,(H,19,23)(H,24,25)(H,21,22,26)

> <Ligand InChI Key>
SHXPARQCHVPBBF-UHFFFAOYSA-N

> <BindingDB MonomerID>
50198238

> <BindingDB Ligand Name>
CHEMBL3903891

> <Target Name Assigned by Curator or DataSource>
DNA Gyrase Subunit B

> <Target Source Organism According to Curator or DataSource>
Escherichia coli

> <Ki (nM)>


> <IC50 (nM)>
 33

> <Kd (nM)>


> <EC50 (nM)>


> <kon (M-1-s-1)>


> <koff (s-1)>


> <pH>


> <Temp C>


> <Curation/DataSource>
ChEMBL

> <Article DOI>
10.1021/acs.jmedchem.6b00864

> <PMID>
27541007

> <PubChem AID>


> <Patent Number>


> <Authors>
Gjorgjieva, M; Tomaic, T; Barancokova, M; Katsamakas, S; Ila, J; Tammela, P; Peterlin Maic, L; Kikelj, D

> <Institution>
University of Ljubljana

> <Link to Ligand in BindingDB>
http://www.bindingdb.org/bind/chemsearch/marvin/MolStructure.jsp?monomerid=50198238

> <Link to Ligand-Target Pair in BindingDB>
http://www.bindingdb.org/jsp/dbsearch/PrimarySearch_ki.jsp?energyterm=kJ/mole&tag=pol&polymerid=2630&target=DNA+Gyrase+Subunit+B&column=ki&startPg=0&Increment=50&submit=Search

> <Link to Ligand-Target Pair in BindingDB>
http://www.bindingdb.org/jsp/dbsearch/PrimarySearch_ki.jsp?energyterm=kJ/mole&tag=r21&monomerid=50198238&enzyme=DNA+Gyrase+Subunit+B&column=ki&startPg=0&Increment=50&submit=Search

> <Ligand HET ID in PDB>


> <PDB ID(s) for Ligand-Target Complex>


> <PubChem CID>
134135022

> <PubChem SID>
375978190

> <ChEBI ID of Ligand>


> <ChEMBL ID of Ligand>


> <DrugBank ID of Ligand>


> <IUPHAR_GRAC ID of Ligand>


> <KEGG ID of Ligand>


> <ZINC ID of Ligand>


> <Number of Protein Chains in Target (>1 implies a multichain complex)>
1

> <BindingDB Target Chain Sequence>
MSNSYDSSSIKVLKGLDAVRKRPGMYIGDTDDGTGLHHMVFEVVDNAIDEALAGHCKEII
VTIHADNSVSVQDDGRGIPTGIHPEEGVSAAEVIMTVLHAGGKFDDNSYKVSGGLHGVGV
SVVNALSQKLELVIQREGKIHRQIYEHGVPQAPLAVTGETEKTGTMVRFWPSLETFTNVT
EFEYEILAKRLRELSFLNSGVSIRLRDKRDGKEDHFHYEGGIKAFVEYLNKNKTPIHPNI
FYFSTEKDGIGVEVALQWNDGFQENIYCFTNNIPQRDGGTHLAGFRAAMTRTLNAYMDKE
GYSKKAKVSATGDDAREGLIAVVSVKVPDPKFSSQTKDKLVSSEVKSAVEQQMNELLAEY
LLENPTDAKIVVGKIIDAARAREAARRAREMTRRKGALDLAGLPGKLADCQERDPALSEL
YLVEGDSAGGSAKQGRNRKNQAILPLKGKILNVEKARFDKMLSSQEVATLITALGCGIGR
DEYNPDKLRYHSIIIMTDADVDGSHIRTLLLTFFYRQMPEIVERGHVYIAQPPLYKVKKG
KQEQYIKDDEAMDQYQISIALDGATLHTNASAPALAGEALEKLVSEYNATQKMINRMERR
YPKAMLKELIYQPTLTEADLSDEQTVTRWVNALVSELNDKEQHGSQWKFDVHTNAEQNLF
EPIVRVRTHGVDTDYPLDHEFITGGEYRRICTLGEKLRGLLEEDAFIERGERRQPVASFE
QALDWLVKESRRGLSIQRYKGLGEMNPEQLWETTMDPESRRMLRVTVKDAIAADQLFTTL
MGDAVEPRRAFIEENALKAANIDI

> <PDB ID(s) of Target Chain>
1KZN,3G7E,3NUH,4DUH,4HYP,4KFG,4PRV,4PRX,4PU9,4WUB,4WUC,4WUD,4XTJ,4ZVI,5L3J,5MMN,5MMO,5MMP,5Z4H,5Z4O,5Z9B,5Z9E,5Z9F,5Z9L,5Z9M,5Z9N,5Z9Q,6ENG,6F86,6F8J,6F94,6F96

> <UniProt (SwissProt) Recommended Name of Target Chain>
DNA gyrase subunit B

> <UniProt (SwissProt) Entry Name of Target Chain>
GYRB_ECOLI

> <UniProt (SwissProt) Primary ID of Target Chain>
P0AES6

> <UniProt (SwissProt) Secondary ID(s) of Target Chain>
O08438,P06982,Q2M811

> <UniProt (SwissProt) Alternative ID(s) of Target Chain>


> <UniProt (TrEMBL) Submitted Name of Target Chain>


> <UniProt (TrEMBL) Entry Name of Target Chain>


> <UniProt (TrEMBL) Primary ID of Target Chain>


> <UniProt (TrEMBL) Secondary ID(s) of Target Chain>


> <UniProt (TrEMBL) Alternative ID(s) of Target Chain>


$$$$

  Mrv0541 11231413392D          

 45 49  0  0  0  0            999 V2000
   -1.0918  -21.1372    0.0000 C   0  0  0  0  0  0  0  0  0  0  0  0
   -1.8177  -20.7357    0.0000 C   0  0  1  0  0  0  0  0  0  0  0  0
   -2.5245  -21.1612    0.0000 C   0  0  2  0  0  0  0  0  0  0  0  0
   -2.5115  -21.9900    0.0000 C   0  0  2  0  0  0  0  0  0  0  0  0
   -1.7857  -22.3916    0.0000 C   0  0  1  0  0  0  0  0  0  0  0  0
   -1.0727  -21.9642    0.0000 O   0  0  0  0  0  0  0  0  0  0  0  0
   -1.7714  -23.2164    0.0000 O   0  0  0  0  0  0  0  0  0  0  0  0
   -1.0517  -23.6277    0.0000 C   0  0  0  0  0  0  0  0  0  0  0  0
   -1.0523  -24.4521    0.0000 C   0  0  0  0  0  0  0  0  0  0  0  0
   -0.3368  -23.2135    0.0000 C   0  0  0  0  0  0  0  0  0  0  0  0
    0.3776  -23.6311    0.0000 C   0  0  0  0  0  0  0  0  0  0  0  0
    0.3759  -24.4558    0.0000 C   0  0  0  0  0  0  0  0  0  0  0  0
   -0.3394  -24.8674    0.0000 C   0  0  0  0  0  0  0  0  0  0  0  0
   -0.3407  -25.6879    0.0000 O   0  0  0  0  0  0  0  0  0  0  0  0
    0.3717  -26.1033    0.0000 C   0  0  0  0  0  0  0  0  0  0  0  0
    1.0870  -25.6918    0.0000 C   0  0  0  0  0  0  0  0  0  0  0  0
    1.0898  -24.8649    0.0000 C   0  0  0  0  0  0  0  0  0  0  0  0
    1.8044  -24.4525    0.0000 O   0  0  0  0  0  0  0  0  0  0  0  0
    0.3694  -26.9282    0.0000 O   0  0  0  0  0  0  0  0  0  0  0  0
    1.8003  -26.1060    0.0000 N   0  0  0  0  0  0  0  0  0  0  0  0
    1.7983  -26.9310    0.0000 C   0  0  0  0  0  0  0  0  0  0  0  0
    1.0828  -27.3417    0.0000 O   0  0  0  0  0  0  0  0  0  0  0  0
   -0.2643  -21.1183    0.0000 C   0  0  0  0  0  0  0  0  0  0  0  0
   -1.1027  -20.3141    0.0000 C   0  0  0  0  0  0  0  0  0  0  0  0
   -1.8329  -19.9108    0.0000 O   0  0  0  0  0  0  0  0  0  0  0  0
   -1.1260  -19.4853    0.0000 C   0  0  0  0  0  0  0  0  0  0  0  0
   -3.2458  -20.7609    0.0000 O   0  0  0  0  0  0  0  0  0  0  0  0
   -3.2598  -19.9360    0.0000 C   0  0  0  0  0  0  0  0  0  0  0  0
   -3.9808  -19.5354    0.0000 C   0  0  0  0  0  0  0  0  0  0  0  0
   -2.5525  -19.5114    0.0000 O   0  0  0  0  0  0  0  0  0  0  0  0
   -3.2189  -22.4146    0.0000 O   0  0  0  0  0  0  0  0  0  0  0  0
   -4.2166  -18.7418    0.0000 C   0  0  0  0  0  0  0  0  0  0  0  0
   -5.0412  -18.7187    0.0000 C   0  0  0  0  0  0  0  0  0  0  0  0
   -5.3181  -19.4959    0.0000 C   0  0  0  0  0  0  0  0  0  0  0  0
   -4.6644  -19.9993    0.0000 N   0  0  0  0  0  0  0  0  0  0  0  0
   -6.0360  -19.9002    0.0000 C   0  0  0  0  0  0  0  0  0  0  0  0
   -1.7677  -24.8631    0.0000 Cl  0  0  0  0  0  0  0  0  0  0  0  0
    2.5117  -27.3452    0.0000 C   0  0  0  0  0  0  0  0  0  0  0  0
    2.5097  -28.1702    0.0000 C   0  0  0  0  0  0  0  0  0  0  0  0
    3.2230  -28.5846    0.0000 C   0  0  0  0  0  0  0  0  0  0  0  0
    3.2173  -29.4070    0.0000 C   0  0  0  0  0  0  0  0  0  0  0  0
    3.9298  -29.8213    0.0000 C   0  0  0  0  0  0  0  0  0  0  0  0
    4.6462  -29.4105    0.0000 C   0  0  0  0  0  0  0  0  0  0  0  0
    4.6457  -28.5813    0.0000 C   0  0  0  0  0  0  0  0  0  0  0  0
    3.9325  -28.1708    0.0000 C   0  0  0  0  0  0  0  0  0  0  0  0
  9 13  2  0  0  0  0
 21 22  2  0  0  0  0
 11 10  1  0  0  0  0
  1 23  1  0  0  0  0
 11 12  2  0  0  0  0
  1 24  1  0  0  0  0
  3  4  1  0  0  0  0
  2 25  1  1  0  0  0
 12 13  1  0  0  0  0
 25 26  1  0  0  0  0
  4  5  1  0  0  0  0
  3 27  1  6  0  0  0
  5  6  1  0  0  0  0
 27 28  1  0  0  0  0
 28 29  1  0  0  0  0
  5  7  1  1  0  0  0
 28 30  2  0  0  0  0
  2  1  1  0  0  0  0
  4 31  1  6  0  0  0
 29 32  2  0  0  0  0
  7  8  1  0  0  0  0
 12 17  1  0  0  0  0
 13 14  1  0  0  0  0
 14 15  1  0  0  0  0
 32 33  1  0  0  0  0
 33 34  2  0  0  0  0
 34 35  1  0  0  0  0
 35 29  1  0  0  0  0
 15 16  1  0  0  0  0
 34 36  1  0  0  0  0
 16 17  2  0  0  0  0
  9 37  1  0  0  0  0
  8  9  1  0  0  0  0
 21 38  1  0  0  0  0
 17 18  1  0  0  0  0
 38 39  2  0  0  0  0
  1  6  1  0  0  0  0
 39 40  1  0  0  0  0
 15 19  2  0  0  0  0
 40 41  2  0  0  0  0
  3  2  1  0  0  0  0
 41 42  1  0  0  0  0
 16 20  1  0  0  0  0
 42 43  2  0  0  0  0
  8 10  2  0  0  0  0
 43 44  1  0  0  0  0
 20 21  1  0  0  0  0
 44 45  2  0  0  0  0
 45 40  1  0  0  0  0
M  END
> <From> 
www.bindingDB.org

> <BindingDB Reactant_set_id>
50607704

> <Ligand InChI>
InChI=1S/C32H31ClN2O10/c1-16-10-13-19(34-16)29(39)44-27-25(38)31(45-32(2,3)28(27)41-4)42-20-14-12-18-24(37)23(30(40)43-26(18)22(20)33)35-21(36)15-11-17-8-6-5-7-9-17/h5-15,25,27-28,31,34,37-38H,1-4H3,(H,35,36)/b15-11+/t25-,27+,28-,31-/m1/s1

> <Ligand InChI Key>
YRPQLLNDNYAISI-SNVNZYQNSA-N

> <BindingDB MonomerID>
50330312

> <BindingDB Ligand Name>
(3R,4S,5R,6S)-6-(8-chloro-3-cinnamamido-4-hydroxy-2-oxo-2H-chromen-7-yloxy)-5-hydroxy-3-methoxy-2,2-dimethyltetrahydro-2H-pyran-4-yl 5-methyl-1H-pyrrole-2-carboxylate::CHEMBL1275846

> <Target Name Assigned by Curator or DataSource>
DNA Gyrase Subunit B

> <Target Source Organism According to Curator or DataSource>
Escherichia coli

> <Ki (nM)>


> <IC50 (nM)>
 34

> <Kd (nM)>


> <EC50 (nM)>


> <kon (M-1-s-1)>


> <koff (s-1)>


> <pH>


> <Temp C>


> <Curation/DataSource>
ChEMBL

> <Article DOI>
10.1128/AAC.01235-07

> <PMID>
18347114

> <PubChem AID>


> <Patent Number>


> <Authors>
Anderle, C; Stieger, M; Burrell, M; Reinelt, S; Maxwell, A; Page, M; Heide, L

> <Institution>
Universit&#228;t T&#252;bingen

> <Link to Ligand in BindingDB>
http://www.bindingdb.org/bind/chemsearch/marvin/MolStructure.jsp?monomerid=50330312

> <Link to Ligand-Target Pair in BindingDB>
http://www.bindingdb.org/jsp/dbsearch/PrimarySearch_ki.jsp?energyterm=kJ/mole&tag=pol&polymerid=2630&target=DNA+Gyrase+Subunit+B&column=ki&startPg=0&Increment=50&submit=Search

> <Link to Ligand-Target Pair in BindingDB>
http://www.bindingdb.org/jsp/dbsearch/PrimarySearch_ki.jsp?energyterm=kJ/mole&tag=r21&monomerid=50330312&enzyme=DNA+Gyrase+Subunit+B&column=ki&startPg=0&Increment=50&submit=Search

> <Ligand HET ID in PDB>


> <PDB ID(s) for Ligand-Target Complex>


> <PubChem CID>
54730369

> <PubChem SID>
123109427

> <ChEBI ID of Ligand>


> <ChEMBL ID of Ligand>
CHEMBL1275846

> <DrugBank ID of Ligand>


> <IUPHAR_GRAC ID of Ligand>


> <KEGG ID of Ligand>


> <ZINC ID of Ligand>
ZINC72138073

> <Number of Protein Chains in Target (>1 implies a multichain complex)>
1

> <BindingDB Target Chain Sequence>
MSNSYDSSSIKVLKGLDAVRKRPGMYIGDTDDGTGLHHMVFEVVDNAIDEALAGHCKEII
VTIHADNSVSVQDDGRGIPTGIHPEEGVSAAEVIMTVLHAGGKFDDNSYKVSGGLHGVGV
SVVNALSQKLELVIQREGKIHRQIYEHGVPQAPLAVTGETEKTGTMVRFWPSLETFTNVT
EFEYEILAKRLRELSFLNSGVSIRLRDKRDGKEDHFHYEGGIKAFVEYLNKNKTPIHPNI
FYFSTEKDGIGVEVALQWNDGFQENIYCFTNNIPQRDGGTHLAGFRAAMTRTLNAYMDKE
GYSKKAKVSATGDDAREGLIAVVSVKVPDPKFSSQTKDKLVSSEVKSAVEQQMNELLAEY
LLENPTDAKIVVGKIIDAARAREAARRAREMTRRKGALDLAGLPGKLADCQERDPALSEL
YLVEGDSAGGSAKQGRNRKNQAILPLKGKILNVEKARFDKMLSSQEVATLITALGCGIGR
DEYNPDKLRYHSIIIMTDADVDGSHIRTLLLTFFYRQMPEIVERGHVYIAQPPLYKVKKG
KQEQYIKDDEAMDQYQISIALDGATLHTNASAPALAGEALEKLVSEYNATQKMINRMERR
YPKAMLKELIYQPTLTEADLSDEQTVTRWVNALVSELNDKEQHGSQWKFDVHTNAEQNLF
EPIVRVRTHGVDTDYPLDHEFITGGEYRRICTLGEKLRGLLEEDAFIERGERRQPVASFE
QALDWLVKESRRGLSIQRYKGLGEMNPEQLWETTMDPESRRMLRVTVKDAIAADQLFTTL
MGDAVEPRRAFIEENALKAANIDI

> <PDB ID(s) of Target Chain>
1KZN,3G7E,3NUH,4DUH,4HYP,4KFG,4PRV,4PRX,4PU9,4WUB,4WUC,4WUD,4XTJ,4ZVI,5L3J,5MMN,5MMO,5MMP,5Z4H,5Z4O,5Z9B,5Z9E,5Z9F,5Z9L,5Z9M,5Z9N,5Z9Q,6ENG,6F86,6F8J,6F94,6F96

> <UniProt (SwissProt) Recommended Name of Target Chain>
DNA gyrase subunit B

> <UniProt (SwissProt) Entry Name of Target Chain>
GYRB_ECOLI

> <UniProt (SwissProt) Primary ID of Target Chain>
P0AES6

> <UniProt (SwissProt) Secondary ID(s) of Target Chain>
O08438,P06982,Q2M811

> <UniProt (SwissProt) Alternative ID(s) of Target Chain>


> <UniProt (TrEMBL) Submitted Name of Target Chain>


> <UniProt (TrEMBL) Entry Name of Target Chain>


> <UniProt (TrEMBL) Primary ID of Target Chain>


> <UniProt (TrEMBL) Secondary ID(s) of Target Chain>


> <UniProt (TrEMBL) Alternative ID(s) of Target Chain>


$$$$

  Mrv0541 11231413392D          

 47 51  0  0  0  0            999 V2000
   12.9376  -10.0507    0.0000 C   0  0  0  0  0  0  0  0  0  0  0  0
   12.2116   -9.6492    0.0000 C   0  0  1  0  0  0  0  0  0  0  0  0
   11.5049  -10.0747    0.0000 C   0  0  2  0  0  0  0  0  0  0  0  0
   11.5178  -10.9036    0.0000 C   0  0  2  0  0  0  0  0  0  0  0  0
   12.2438  -11.3051    0.0000 C   0  0  1  0  0  0  0  0  0  0  0  0
   12.9568  -10.8778    0.0000 O   0  0  0  0  0  0  0  0  0  0  0  0
   12.2581  -12.1300    0.0000 O   0  0  0  0  0  0  0  0  0  0  0  0
   12.9778  -12.5413    0.0000 C   0  0  0  0  0  0  0  0  0  0  0  0
   12.9770  -13.3659    0.0000 C   0  0  0  0  0  0  0  0  0  0  0  0
   13.6927  -12.1271    0.0000 C   0  0  0  0  0  0  0  0  0  0  0  0
   14.4071  -12.5447    0.0000 C   0  0  0  0  0  0  0  0  0  0  0  0
   14.4052  -13.3695    0.0000 C   0  0  0  0  0  0  0  0  0  0  0  0
   13.6900  -13.7810    0.0000 C   0  0  0  0  0  0  0  0  0  0  0  0
   13.6888  -14.6017    0.0000 O   0  0  0  0  0  0  0  0  0  0  0  0
   14.4012  -15.0171    0.0000 C   0  0  0  0  0  0  0  0  0  0  0  0
   15.1164  -14.6054    0.0000 C   0  0  0  0  0  0  0  0  0  0  0  0
   15.1194  -13.7786    0.0000 C   0  0  0  0  0  0  0  0  0  0  0  0
   15.8338  -13.3662    0.0000 O   0  0  0  0  0  0  0  0  0  0  0  0
   14.3988  -15.8419    0.0000 O   0  0  0  0  0  0  0  0  0  0  0  0
   15.8298  -15.0197    0.0000 N   0  0  0  0  0  0  0  0  0  0  0  0
   15.8278  -15.8447    0.0000 C   0  0  0  0  0  0  0  0  0  0  0  0
   15.1123  -16.2554    0.0000 O   0  0  0  0  0  0  0  0  0  0  0  0
   16.5412  -16.2591    0.0000 C   0  0  0  0  0  0  0  0  0  0  0  0
   16.5363  -17.0832    0.0000 C   0  0  0  0  0  0  0  0  0  0  0  0
   17.2488  -17.4974    0.0000 C   0  0  0  0  0  0  0  0  0  0  0  0
   17.9654  -17.0866    0.0000 C   0  0  0  0  0  0  0  0  0  0  0  0
   17.9647  -16.2574    0.0000 C   0  0  0  0  0  0  0  0  0  0  0  0
   17.2516  -15.8469    0.0000 C   0  0  0  0  0  0  0  0  0  0  0  0
   18.6794  -17.5000    0.0000 O   0  0  0  0  0  0  0  0  0  0  0  0
   18.6788  -15.8441    0.0000 C   0  0  0  0  0  0  0  0  0  0  0  0
   13.7652  -10.0319    0.0000 C   0  0  0  0  0  0  0  0  0  0  0  0
   12.9268   -9.2277    0.0000 C   0  0  0  0  0  0  0  0  0  0  0  0
   12.1966   -8.8243    0.0000 O   0  0  0  0  0  0  0  0  0  0  0  0
   12.9033   -8.3989    0.0000 C   0  0  0  0  0  0  0  0  0  0  0  0
   10.7835   -9.6744    0.0000 O   0  0  0  0  0  0  0  0  0  0  0  0
   10.7696   -8.8495    0.0000 C   0  0  0  0  0  0  0  0  0  0  0  0
   10.0485   -8.4489    0.0000 C   0  0  0  0  0  0  0  0  0  0  0  0
   11.4770   -8.4250    0.0000 O   0  0  0  0  0  0  0  0  0  0  0  0
   10.8105  -11.3281    0.0000 O   0  0  0  0  0  0  0  0  0  0  0  0
    9.8127   -7.6554    0.0000 C   0  0  0  0  0  0  0  0  0  0  0  0
    8.9880   -7.6323    0.0000 C   0  0  0  0  0  0  0  0  0  0  0  0
    8.7113   -8.4095    0.0000 C   0  0  0  0  0  0  0  0  0  0  0  0
    9.3649   -8.9128    0.0000 N   0  0  0  0  0  0  0  0  0  0  0  0
    7.9933   -8.8137    0.0000 C   0  0  0  0  0  0  0  0  0  0  0  0
   12.2617  -13.7767    0.0000 C   0  0  0  0  0  0  0  0  0  0  0  0
   19.3937  -16.2559    0.0000 C   0  0  0  0  0  0  0  0  0  0  0  0
   20.1077  -15.8427    0.0000 C   0  0  0  0  0  0  0  0  0  0  0  0
 11 10  1  0  0  0  0
 21 23  1  0  0  0  0
 11 12  2  0  0  0  0
 23 24  2  0  0  0  0
  3  4  1  0  0  0  0
 24 25  1  0  0  0  0
 12 13  1  0  0  0  0
 25 26  2  0  0  0  0
  4  5  1  0  0  0  0
 26 27  1  0  0  0  0
  5  6  1  0  0  0  0
 27 28  2  0  0  0  0
 28 23  1  0  0  0  0
 26 29  1  0  0  0  0
  5  7  1  1  0  0  0
 27 30  1  0  0  0  0
  2  1  1  0  0  0  0
  1 31  1  0  0  0  0
  7  8  1  0  0  0  0
  1 32  1  0  0  0  0
 12 17  1  0  0  0  0
  2 33  1  1  0  0  0
 13 14  1  0  0  0  0
 33 34  1  0  0  0  0
 14 15  1  0  0  0  0
  3 35  1  6  0  0  0
 15 16  1  0  0  0  0
 35 36  1  0  0  0  0
 16 17  2  0  0  0  0
 36 37  1  0  0  0  0
  8  9  1  0  0  0  0
 36 38  2  0  0  0  0
 17 18  1  0  0  0  0
  4 39  1  6  0  0  0
 37 40  2  0  0  0  0
  1  6  1  0  0  0  0
 15 19  2  0  0  0  0
  3  2  1  0  0  0  0
 16 20  1  0  0  0  0
 40 41  1  0  0  0  0
 41 42  2  0  0  0  0
 42 43  1  0  0  0  0
 43 37  1  0  0  0  0
  8 10  2  0  0  0  0
 42 44  1  0  0  0  0
 20 21  1  0  0  0  0
  9 45  1  0  0  0  0
  9 13  2  0  0  0  0
 30 46  1  0  0  0  0
 21 22  2  0  0  0  0
 46 47  2  0  0  0  0
M  END
> <From> 
www.bindingDB.org

> <BindingDB Reactant_set_id>
50607703

> <Ligand InChI>
InChI=1S/C34H36N2O11/c1-7-8-18-15-19(10-13-22(18)37)30(40)36-24-25(38)20-11-14-23(17(3)27(20)45-32(24)42)44-33-26(39)28(29(43-6)34(4,5)47-33)46-31(41)21-12-9-16(2)35-21/h7,9-15,26,28-29,33,35,37-39H,1,8H2,2-6H3,(H,36,40)/t26-,28+,29-,33-/m1/s1

> <Ligand InChI Key>
MMMULBZZNWSVGW-ZQZBKPNISA-N

> <BindingDB MonomerID>
50330310

> <BindingDB Ligand Name>
(3R,4S,5R,6R)-6-(3-(3-allyl-4-hydroxybenzamido)-4-hydroxy-8-methyl-2-oxo-2H-chromen-7-yloxy)-5-hydroxy-3-methoxy-2,2-dimethyltetrahydro-2H-pyran-4-yl 5-methyl-1H-pyrrole-2-carboxylate::CHEMBL1275883

> <Target Name Assigned by Curator or DataSource>
DNA Gyrase Subunit B

> <Target Source Organism According to Curator or DataSource>
Escherichia coli

> <Ki (nM)>


> <IC50 (nM)>
 34

> <Kd (nM)>


> <EC50 (nM)>


> <kon (M-1-s-1)>


> <koff (s-1)>


> <pH>


> <Temp C>


> <Curation/DataSource>
ChEMBL

> <Article DOI>
10.1128/AAC.01235-07

> <PMID>
18347114

> <PubChem AID>


> <Patent Number>


> <Authors>
Anderle, C; Stieger, M; Burrell, M; Reinelt, S; Maxwell, A; Page, M; Heide, L

> <Institution>
Universit&#228;t T&#252;bingen

> <Link to Ligand in BindingDB>
http://www.bindingdb.org/bind/chemsearch/marvin/MolStructure.jsp?monomerid=50330310

> <Link to Ligand-Target Pair in BindingDB>
http://www.bindingdb.org/jsp/dbsearch/PrimarySearch_ki.jsp?energyterm=kJ/mole&tag=pol&polymerid=2630&target=DNA+Gyrase+Subunit+B&column=ki&startPg=0&Increment=50&submit=Search

> <Link to Ligand-Target Pair in BindingDB>
http://www.bindingdb.org/jsp/dbsearch/PrimarySearch_ki.jsp?energyterm=kJ/mole&tag=r21&monomerid=50330310&enzyme=DNA+Gyrase+Subunit+B&column=ki&startPg=0&Increment=50&submit=Search

> <Ligand HET ID in PDB>


> <PDB ID(s) for Ligand-Target Complex>


> <PubChem CID>
54729451

> <PubChem SID>
123109425

> <ChEBI ID of Ligand>


> <ChEMBL ID of Ligand>
CHEMBL1275883

> <DrugBank ID of Ligand>


> <IUPHAR_GRAC ID of Ligand>


> <KEGG ID of Ligand>


> <ZINC ID of Ligand>
ZINC72136389

> <Number of Protein Chains in Target (>1 implies a multichain complex)>
1

> <BindingDB Target Chain Sequence>
MSNSYDSSSIKVLKGLDAVRKRPGMYIGDTDDGTGLHHMVFEVVDNAIDEALAGHCKEII
VTIHADNSVSVQDDGRGIPTGIHPEEGVSAAEVIMTVLHAGGKFDDNSYKVSGGLHGVGV
SVVNALSQKLELVIQREGKIHRQIYEHGVPQAPLAVTGETEKTGTMVRFWPSLETFTNVT
EFEYEILAKRLRELSFLNSGVSIRLRDKRDGKEDHFHYEGGIKAFVEYLNKNKTPIHPNI
FYFSTEKDGIGVEVALQWNDGFQENIYCFTNNIPQRDGGTHLAGFRAAMTRTLNAYMDKE
GYSKKAKVSATGDDAREGLIAVVSVKVPDPKFSSQTKDKLVSSEVKSAVEQQMNELLAEY
LLENPTDAKIVVGKIIDAARAREAARRAREMTRRKGALDLAGLPGKLADCQERDPALSEL
YLVEGDSAGGSAKQGRNRKNQAILPLKGKILNVEKARFDKMLSSQEVATLITALGCGIGR
DEYNPDKLRYHSIIIMTDADVDGSHIRTLLLTFFYRQMPEIVERGHVYIAQPPLYKVKKG
KQEQYIKDDEAMDQYQISIALDGATLHTNASAPALAGEALEKLVSEYNATQKMINRMERR
YPKAMLKELIYQPTLTEADLSDEQTVTRWVNALVSELNDKEQHGSQWKFDVHTNAEQNLF
EPIVRVRTHGVDTDYPLDHEFITGGEYRRICTLGEKLRGLLEEDAFIERGERRQPVASFE
QALDWLVKESRRGLSIQRYKGLGEMNPEQLWETTMDPESRRMLRVTVKDAIAADQLFTTL
MGDAVEPRRAFIEENALKAANIDI

> <PDB ID(s) of Target Chain>
1KZN,3G7E,3NUH,4DUH,4HYP,4KFG,4PRV,4PRX,4PU9,4WUB,4WUC,4WUD,4XTJ,4ZVI,5L3J,5MMN,5MMO,5MMP,5Z4H,5Z4O,5Z9B,5Z9E,5Z9F,5Z9L,5Z9M,5Z9N,5Z9Q,6ENG,6F86,6F8J,6F94,6F96

> <UniProt (SwissProt) Recommended Name of Target Chain>
DNA gyrase subunit B

> <UniProt (SwissProt) Entry Name of Target Chain>
GYRB_ECOLI

> <UniProt (SwissProt) Primary ID of Target Chain>
P0AES6

> <UniProt (SwissProt) Secondary ID(s) of Target Chain>
O08438,P06982,Q2M811

> <UniProt (SwissProt) Alternative ID(s) of Target Chain>


> <UniProt (TrEMBL) Submitted Name of Target Chain>


> <UniProt (TrEMBL) Entry Name of Target Chain>


> <UniProt (TrEMBL) Primary ID of Target Chain>


> <UniProt (TrEMBL) Secondary ID(s) of Target Chain>


> <UniProt (TrEMBL) Alternative ID(s) of Target Chain>


$$$$

  Mrv0541 11231422262D          

 26 28  0  0  0  0            999 V2000
   16.4026  -15.2528    0.0000 N   0  0  0  0  0  0  0  0  0  0  0  0
   15.7294  -14.7661    0.0000 C   0  0  0  0  0  0  0  0  0  0  0  0
   15.9861  -13.9778    0.0000 C   0  0  0  0  0  0  0  0  0  0  0  0
   16.8151  -13.9778    0.0000 C   0  0  0  0  0  0  0  0  0  0  0  0
   17.0717  -14.7666    0.0000 C   0  0  0  0  0  0  0  0  0  0  0  0
   14.9451  -15.0217    0.0000 C   0  0  0  0  0  0  0  0  0  0  0  0
   17.7885  -15.1748    0.0000 C   0  0  0  0  0  0  0  0  0  0  0  0
   17.7933  -15.9998    0.0000 O   0  0  0  0  0  0  0  0  0  0  0  0
   18.5004  -14.7583    0.0000 N   0  0  0  0  0  0  0  0  0  0  0  0
   19.2173  -15.1665    0.0000 C   0  0  2  0  0  0  0  0  0  0  0  0
   19.2185  -15.9936    0.0000 C   0  0  1  0  0  0  0  0  0  0  0  0
   19.9311  -16.4017    0.0000 C   0  0  0  0  0  0  0  0  0  0  0  0
   20.6455  -15.9886    0.0000 N   0  0  0  0  0  0  0  0  0  0  0  0
   20.6427  -15.1626    0.0000 C   0  0  0  0  0  0  0  0  0  0  0  0
   19.9254  -14.7500    0.0000 C   0  0  0  0  0  0  0  0  0  0  0  0
   21.3611  -16.3994    0.0000 C   0  0  0  0  0  0  0  0  0  0  0  0
   15.5014  -13.3103    0.0000 Cl  0  0  0  0  0  0  0  0  0  0  0  0
   17.2998  -13.3104    0.0000 Cl  0  0  0  0  0  0  0  0  0  0  0  0
   21.6236  -17.1812    0.0000 S   0  0  0  0  0  0  0  0  0  0  0  0
   22.4485  -17.1741    0.0000 C   0  0  0  0  0  0  0  0  0  0  0  0
   22.6968  -16.3872    0.0000 C   0  0  0  0  0  0  0  0  0  0  0  0
   22.0251  -15.9083    0.0000 N   0  0  0  0  0  0  0  0  0  0  0  0
   22.8577  -17.8903    0.0000 C   0  0  0  0  0  0  0  0  0  0  0  0
   22.4421  -18.6029    0.0000 O   0  0  0  0  0  0  0  0  0  0  0  0
   23.6827  -17.8940    0.0000 O   0  0  0  0  0  0  0  0  0  0  0  0
   18.5050  -16.4077    0.0000 F   0  0  0  0  0  0  0  0  0  0  0  0
  5  7  1  0  0  0  0
 10 15  1  0  0  0  0
 11 12  1  0  0  0  0
 12 13  1  0  0  0  0
 13 14  1  0  0  0  0
 14 15  1  0  0  0  0
  1  2  1  0  0  0  0
 13 16  1  0  0  0  0
  7  8  2  0  0  0  0
  3 17  1  0  0  0  0
  3  4  1  0  0  0  0
  4 18  1  0  0  0  0
 16 19  1  0  0  0  0
  7  9  1  0  0  0  0
  4  5  2  0  0  0  0
 10  9  1  1  0  0  0
 10 11  1  0  0  0  0
 19 20  1  0  0  0  0
 20 21  2  0  0  0  0
 21 22  1  0  0  0  0
 22 16  2  0  0  0  0
  5  1  1  0  0  0  0
 20 23  1  0  0  0  0
  2  3  2  0  0  0  0
 23 24  2  0  0  0  0
  2  6  1  0  0  0  0
 23 25  1  0  0  0  0
 11 26  1  1  0  0  0
M  END
> <From> 
www.bindingDB.org

> <BindingDB Reactant_set_id>
50705133

> <Ligand InChI>
InChI=1S/C15H15Cl2FN4O3S/c1-6-10(16)11(17)12(20-6)13(23)21-8-2-3-22(5-7(8)18)15-19-4-9(26-15)14(24)25/h4,7-8,20H,2-3,5H2,1H3,(H,21,23)(H,24,25)/t7-,8+/m1/s1

> <Ligand InChI Key>
BGDGHNSKANYMHF-SFYZADRCSA-N

> <BindingDB MonomerID>
50358855

> <BindingDB Ligand Name>
CHEMBL1923438

> <Target Name Assigned by Curator or DataSource>
DNA Gyrase Subunit B

> <Target Source Organism According to Curator or DataSource>
Staphylococcus aureus

> <Ki (nM)>


> <IC50 (nM)>
 35

> <Kd (nM)>


> <EC50 (nM)>


> <kon (M-1-s-1)>


> <koff (s-1)>


> <pH>


> <Temp C>


> <Curation/DataSource>
ChEMBL

> <Article DOI>
10.1016/j.bmcl.2011.10.010

> <PMID>
22041057

> <PubChem AID>


> <Patent Number>


> <Authors>
Sherer, BA; Hull, K; Green, O; Basarab, G; Hauck, S; Hill, P; Loch, JT; Mullen, G; Bist, S; Bryant, J; Boriack-Sjodin, A; Read, J; DeGrace, N; Uria-Nickelsen, M; Illingworth, RN; Eakin, AE

> <Institution>
AstraZeneca R&amp;D Boston

> <Link to Ligand in BindingDB>
http://www.bindingdb.org/bind/chemsearch/marvin/MolStructure.jsp?monomerid=50358855

> <Link to Ligand-Target Pair in BindingDB>
http://www.bindingdb.org/jsp/dbsearch/PrimarySearch_ki.jsp?energyterm=kJ/mole&tag=pol&polymerid=2626&target=DNA+Gyrase+Subunit+B&column=ki&startPg=0&Increment=50&submit=Search

> <Link to Ligand-Target Pair in BindingDB>
http://www.bindingdb.org/jsp/dbsearch/PrimarySearch_ki.jsp?energyterm=kJ/mole&tag=r21&monomerid=50358855&enzyme=DNA+Gyrase+Subunit+B&column=ki&startPg=0&Increment=50&submit=Search

> <Ligand HET ID in PDB>


> <PDB ID(s) for Ligand-Target Complex>


> <PubChem CID>
57396008

> <PubChem SID>
136962879

> <ChEBI ID of Ligand>


> <ChEMBL ID of Ligand>
CHEMBL1923438

> <DrugBank ID of Ligand>


> <IUPHAR_GRAC ID of Ligand>


> <KEGG ID of Ligand>


> <ZINC ID of Ligand>
ZINC73158285

> <Number of Protein Chains in Target (>1 implies a multichain complex)>
1

> <BindingDB Target Chain Sequence>
MVTALSDVNNTDNYGAGQIQVLEGLEAVRKRPGMYIGSTSERGLHHLVWEIVDNSIDEALAGYANQIEVVIEKDNWIKVTDNGRGIPVDIQEKMGRPAVEVILTVLHAGGKFGGGGYKVSGGLHGVGSSVVNALSQDLEVYVHRNETIYHQAYKKGVPQFDLKEVGTTDKTGTVIRFKADGEIFTETTVYNYETLQQRIRELAFLNKGIQITLRDERDEENVREDSYHYEGGIKSYVELLNENKEPIHDEPIYIHQSKDDIEVEIAIQYNSGYATNLLTYANNIHTYEGGTHEDGFKRALTRVLNSYGLSSKIMKEEKDRLSGEDTREGMTAIISIKHGDPQFEGQTKTKLGNSEVRQVVDKLFSEHFERFLYENPQVARTVVEKGIMAARARVAAKKAREVTRRKSALDVASLPGKLADCSSKSPEECEIFLVEGDSAGGSTKSGRDSRTQAILPLRGKILNVEKARLDRILNNNEIRQMITAFGTGIGGDFDLAKARYHKIVIMTDADVDGAHIRTLLLTFFYRFMRPLIEAGYVYIAQPPLYKLTQGKQKYYVYNDRELDKLKSELNPTPKWSIARYKGLGEMNADQLWETTMNPEHRALLQVKLEDAIEADQTFEMLMGDVVENRRQFIEDNAVYANLDF

> <PDB ID(s) of Target Chain>


> <UniProt (SwissProt) Recommended Name of Target Chain>
DNA gyrase subunit B

> <UniProt (SwissProt) Entry Name of Target Chain>
GYRB_STAAU

> <UniProt (SwissProt) Primary ID of Target Chain>
P0A0K8

> <UniProt (SwissProt) Secondary ID(s) of Target Chain>
P20832

> <UniProt (SwissProt) Alternative ID(s) of Target Chain>


> <UniProt (TrEMBL) Submitted Name of Target Chain>


> <UniProt (TrEMBL) Entry Name of Target Chain>


> <UniProt (TrEMBL) Primary ID of Target Chain>


> <UniProt (TrEMBL) Secondary ID(s) of Target Chain>


> <UniProt (TrEMBL) Alternative ID(s) of Target Chain>


$$$$

  SciTegic12201612272D

 24 27  0  0  0  0            999 V2000
    0.2917   -0.7475    0.0000 C   0  0
    0.2917    0.7475    0.0000 C   0  0
   -1.0028    1.5132    0.0000 C   0  0
   -2.3155    0.7475    0.0000 C   0  0
   -2.3155   -0.7475    0.0000 C   0  0
   -1.0028   -1.5132    0.0000 N   0  0
    2.5889    0.0182    0.0000 N   0  0
    1.7138   -1.2033    0.0000 N   0  0
    1.7138    1.2033    0.0000 C   0  0
   -3.3560   -1.3452    0.0000 O   0  0
    3.6243    2.9682    0.0000 S   0  0
    3.7308    4.4645    0.0000 C   0  0
    2.3406    5.0280    0.0000 N   0  0
    1.3751    3.8801    0.0000 C   0  0
    2.1749    2.6315    0.0000 C   0  0
    6.3724    4.6552    0.0000 C   0  0
    5.0044    5.2582    0.0000 C   0  0
    4.8363    6.7505    0.0000 C   0  0
    6.0460    7.6374    0.0000 C   0  0
    7.4189    7.0332    0.0000 C   0  0
    7.5821    5.5421    0.0000 N   0  0
   -3.3560    1.3452    0.0000 C   0  0
   -0.9971   -3.0138    0.0000 C   0  0
   -2.0337   -3.6184    0.0000 C   0  0
  1  2  2  0
  2  3  1  0
  3  4  2  0
  4  5  1  0
  5  6  1  0
  1  6  1  0
  7  8  1  0
  7  9  2  0
  1  8  1  0
  2  9  1  0
  5 10  2  0
 11 12  1  0
 12 13  2  0
 13 14  1  0
 14 15  2  0
 11 15  1  0
 16 17  1  0
 17 18  2  0
 18 19  1  0
 19 20  2  0
 20 21  1  0
 16 21  2  0
 12 17  1  0
  9 15  1  0
  4 22  1  0
 23 24  1  0
  6 23  1  0
M  END
> <From> 
www.bindingDB.org

> <BindingDB Reactant_set_id>
50498694

> <Ligand InChI>
InChI=1S/C17H15N5OS/c1-3-22-15-12(7-10(2)17(22)23)14(20-21-15)13-9-19-16(24-13)11-5-4-6-18-8-11/h4-9H,3H2,1-2H3,(H,20,21)

> <Ligand InChI Key>
AKEXXQMWWDULIU-UHFFFAOYSA-N

> <BindingDB MonomerID>
50173882

> <BindingDB Ligand Name>
CHEMBL3809242

> <Target Name Assigned by Curator or DataSource>
DNA gyrase

> <Target Source Organism According to Curator or DataSource>
Staphylococcus aureus

> <Ki (nM)>


> <IC50 (nM)>
 35

> <Kd (nM)>


> <EC50 (nM)>


> <kon (M-1-s-1)>


> <koff (s-1)>


> <pH>


> <Temp C>


> <Curation/DataSource>
ChEMBL

> <Article DOI>
10.1021/acsmedchemlett.5b00368

> <PMID>
27096044

> <PubChem AID>


> <Patent Number>


> <Authors>
Cross, JB; Zhang, J; Yang, Q; Mesleh, MF; Romero, JA; Wang, B; Bevan, D; Poutsiaka, KM; Epie, F; Moy, T; Daniel, A; Shotwell, J; Chamberlain, B; Carter, N; Andersen, O; Barker, J; Ryan, MD; Metcalf, CA; Silverman, J; Nguyen, K; Lippa, B; Dolle, RE

> <Institution>
Cubist Pharmaceuticals, Inc.

> <Link to Ligand in BindingDB>
http://www.bindingdb.org/bind/chemsearch/marvin/MolStructure.jsp?monomerid=50173882

> <Link to Ligand-Target Pair in BindingDB>
http://www.bindingdb.org/jsp/dbsearch/PrimarySearch_ki.jsp?energyterm=kJ/mole&tag=pol&polymerid=2626&target=DNA+gyrase&column=ki&startPg=0&Increment=50&submit=Search

> <Link to Ligand-Target Pair in BindingDB>
http://www.bindingdb.org/jsp/dbsearch/PrimarySearch_ki.jsp?energyterm=kJ/mole&tag=r21&monomerid=50173882&enzyme=DNA+gyrase&column=ki&startPg=0&Increment=50&submit=Search

> <Ligand HET ID in PDB>


> <PDB ID(s) for Ligand-Target Complex>


> <PubChem CID>
127045550

> <PubChem SID>
346548901

> <ChEBI ID of Ligand>


> <ChEMBL ID of Ligand>


> <DrugBank ID of Ligand>


> <IUPHAR_GRAC ID of Ligand>


> <KEGG ID of Ligand>


> <ZINC ID of Ligand>


> <Number of Protein Chains in Target (>1 implies a multichain complex)>
1

> <BindingDB Target Chain Sequence>
MVTALSDVNNTDNYGAGQIQVLEGLEAVRKRPGMYIGSTSERGLHHLVWEIVDNSIDEALAGYANQIEVVIEKDNWIKVTDNGRGIPVDIQEKMGRPAVEVILTVLHAGGKFGGGGYKVSGGLHGVGSSVVNALSQDLEVYVHRNETIYHQAYKKGVPQFDLKEVGTTDKTGTVIRFKADGEIFTETTVYNYETLQQRIRELAFLNKGIQITLRDERDEENVREDSYHYEGGIKSYVELLNENKEPIHDEPIYIHQSKDDIEVEIAIQYNSGYATNLLTYANNIHTYEGGTHEDGFKRALTRVLNSYGLSSKIMKEEKDRLSGEDTREGMTAIISIKHGDPQFEGQTKTKLGNSEVRQVVDKLFSEHFERFLYENPQVARTVVEKGIMAARARVAAKKAREVTRRKSALDVASLPGKLADCSSKSPEECEIFLVEGDSAGGSTKSGRDSRTQAILPLRGKILNVEKARLDRILNNNEIRQMITAFGTGIGGDFDLAKARYHKIVIMTDADVDGAHIRTLLLTFFYRFMRPLIEAGYVYIAQPPLYKLTQGKQKYYVYNDRELDKLKSELNPTPKWSIARYKGLGEMNADQLWETTMNPEHRALLQVKLEDAIEADQTFEMLMGDVVENRRQFIEDNAVYANLDF

> <PDB ID(s) of Target Chain>


> <UniProt (SwissProt) Recommended Name of Target Chain>
DNA gyrase subunit B

> <UniProt (SwissProt) Entry Name of Target Chain>
GYRB_STAAU

> <UniProt (SwissProt) Primary ID of Target Chain>
P0A0K8

> <UniProt (SwissProt) Secondary ID(s) of Target Chain>
P20832

> <UniProt (SwissProt) Alternative ID(s) of Target Chain>


> <UniProt (TrEMBL) Submitted Name of Target Chain>


> <UniProt (TrEMBL) Entry Name of Target Chain>


> <UniProt (TrEMBL) Primary ID of Target Chain>


> <UniProt (TrEMBL) Secondary ID(s) of Target Chain>


> <UniProt (TrEMBL) Alternative ID(s) of Target Chain>


$$$$

  Mrv0541 11241408262D          

 28 31  0  0  0  0            999 V2000
   11.2569  -13.2291    0.0000 C   0  0  0  0  0  0  0  0  0  0  0  0
   11.2557  -14.0565    0.0000 C   0  0  0  0  0  0  0  0  0  0  0  0
   11.9706  -14.4694    0.0000 C   0  0  0  0  0  0  0  0  0  0  0  0
   11.9688  -12.8164    0.0000 C   0  0  0  0  0  0  0  0  0  0  0  0
   13.4754  -12.9715    0.0000 N   0  0  0  0  0  0  0  0  0  0  0  0
   12.6841  -13.2255    0.0000 C   0  0  0  0  0  0  0  0  0  0  0  0
   12.6823  -14.0572    0.0000 N   0  0  0  0  0  0  0  0  0  0  0  0
   13.4735  -14.3146    0.0000 C   0  0  0  0  0  0  0  0  0  0  0  0
   13.9615  -13.6411    0.0000 C   0  0  0  0  0  0  0  0  0  0  0  0
   10.5444  -12.8170    0.0000 C   0  0  0  0  0  0  0  0  0  0  0  0
   10.5456  -11.9909    0.0000 C   0  0  0  0  0  0  0  0  0  0  0  0
    9.8319  -11.5786    0.0000 N   0  0  0  0  0  0  0  0  0  0  0  0
    9.1165  -11.9913    0.0000 C   0  0  0  0  0  0  0  0  0  0  0  0
    9.1193  -12.8206    0.0000 N   0  0  0  0  0  0  0  0  0  0  0  0
    9.8337  -13.2291    0.0000 C   0  0  0  0  0  0  0  0  0  0  0  0
   11.9726  -15.2916    0.0000 C   0  0  0  0  0  0  0  0  0  0  0  0
   11.2567  -15.7039    0.0000 N   0  0  0  0  0  0  0  0  0  0  0  0
   11.2568  -16.5281    0.0000 C   0  0  0  0  0  0  0  0  0  0  0  0
   11.9720  -16.9411    0.0000 C   0  0  0  0  0  0  0  0  0  0  0  0
   12.6886  -16.5237    0.0000 C   0  0  0  0  0  0  0  0  0  0  0  0
   12.6850  -15.7009    0.0000 N   0  0  0  0  0  0  0  0  0  0  0  0
   14.7865  -13.6408    0.0000 N   0  0  0  0  0  0  0  0  0  0  0  0
   15.1987  -12.9261    0.0000 C   0  0  0  0  0  0  0  0  0  0  0  0
   14.7859  -12.2118    0.0000 O   0  0  0  0  0  0  0  0  0  0  0  0
   16.0237  -12.9258    0.0000 N   0  0  0  0  0  0  0  0  0  0  0  0
   16.4365  -13.6401    0.0000 C   0  0  0  0  0  0  0  0  0  0  0  0
   17.2615  -13.6398    0.0000 C   0  0  0  0  0  0  0  0  0  0  0  0
   11.9736  -17.7661    0.0000 C   0  0  0  0  0  0  0  0  0  0  0  0
 13 14  2  0  0  0  0
  1  2  1  0  0  0  0
 14 15  1  0  0  0  0
 15 10  2  0  0  0  0
  1 10  1  0  0  0  0
  6  4  1  0  0  0  0
  5  6  2  0  0  0  0
 16 17  2  0  0  0  0
  7  8  1  0  0  0  0
 17 18  1  0  0  0  0
  8  9  2  0  0  0  0
 18 19  2  0  0  0  0
  9  5  1  0  0  0  0
 19 20  1  0  0  0  0
  4  1  2  0  0  0  0
 20 21  2  0  0  0  0
 21 16  1  0  0  0  0
  3 16  1  0  0  0  0
  6  7  1  0  0  0  0
  9 22  1  0  0  0  0
 10 11  1  0  0  0  0
 22 23  1  0  0  0  0
 23 24  2  0  0  0  0
 11 12  2  0  0  0  0
 23 25  1  0  0  0  0
  2  3  2  0  0  0  0
 25 26  1  0  0  0  0
 12 13  1  0  0  0  0
 26 27  1  0  0  0  0
  3  7  1  0  0  0  0
 19 28  1  0  0  0  0
M  END
> <From> 
www.bindingDB.org

> <BindingDB Reactant_set_id>
50904842

> <Ligand InChI>
InChI=1S/C19H18N8O/c1-3-22-19(28)26-16-10-27-15(18-23-6-12(2)7-24-18)4-13(5-17(27)25-16)14-8-20-11-21-9-14/h4-11H,3H2,1-2H3,(H2,22,26,28)

> <Ligand InChI Key>
FVGMXEKHKSNPMB-UHFFFAOYSA-N

> <BindingDB MonomerID>
50378451

> <BindingDB Ligand Name>
CHEMBL578362

> <Target Name Assigned by Curator or DataSource>
DNA gyrase subunit B

> <Target Source Organism According to Curator or DataSource>
Streptococcus pneumoniae

> <Ki (nM)>


> <IC50 (nM)>
 36

> <Kd (nM)>


> <EC50 (nM)>


> <kon (M-1-s-1)>


> <koff (s-1)>


> <pH>


> <Temp C>


> <Curation/DataSource>
ChEMBL

> <Article DOI>
10.1016/j.bmcl.2009.07.141

> <PMID>
19683922

> <PubChem AID>


> <Patent Number>


> <Authors>
Starr, JT; Sciotti, RJ; Hanna, DL; Huband, MD; Mullins, LM; Cai, H; Gage, JW; Lockard, M; Rauckhorst, MR; Owen, RM; Lall, MS; Tomilo, M; Chen, H; McCurdy, SP; Barbachyn, MR

> <Institution>
Pfizer Inc.

> <Link to Ligand in BindingDB>
http://www.bindingdb.org/bind/chemsearch/marvin/MolStructure.jsp?monomerid=50378451

> <Link to Ligand-Target Pair in BindingDB>
http://www.bindingdb.org/jsp/dbsearch/PrimarySearch_ki.jsp?energyterm=kJ/mole&tag=pol&polymerid=50005944&target=DNA+gyrase+subunit+B&column=ki&startPg=0&Increment=50&submit=Search

> <Link to Ligand-Target Pair in BindingDB>
http://www.bindingdb.org/jsp/dbsearch/PrimarySearch_ki.jsp?energyterm=kJ/mole&tag=r21&monomerid=50378451&enzyme=DNA+gyrase+subunit+B&column=ki&startPg=0&Increment=50&submit=Search

> <Ligand HET ID in PDB>


> <PDB ID(s) for Ligand-Target Complex>


> <PubChem CID>
45484766

> <PubChem SID>
160857534

> <ChEBI ID of Ligand>


> <ChEMBL ID of Ligand>
CHEMBL578362

> <DrugBank ID of Ligand>


> <IUPHAR_GRAC ID of Ligand>


> <KEGG ID of Ligand>


> <ZINC ID of Ligand>
ZINC45291076

> <Number of Protein Chains in Target (>1 implies a multichain complex)>
1

> <BindingDB Target Chain Sequence>
MTEEIKNLQAQDYDASQIQVLEGLEAVRMRPGMYIGSTSKEGLHHLVWEIVDNSIDEALAGFASHIQVFIEPDDSITVVDDGRGIPVDIQEKTGRPAVETVFTVLHAGGKFGGGGYKVSGGLHGVGSSVVNALSTQLDVHVHKNGKIHYQEYRRGHVVADLEIVGDTDKTGTTVHFTPDPKIFTETTIFDFDKLNKRIQELAFLNRGLQISITDKRQGLEQTKHYHYEGGIASYVEYINENKDVIFDTPIYTDGEMDDITVEVAMQYTTGYHENVMSFANNIHTHEGGTHEQGFRTALTRVINDYARKNKLLKDNEDNLTGEDVREGLTAVISVKHPNPQFEGQTKTKLGNSEVVKITNRLFSEAFSDFLMENPQIAKRIVEKGILAAKARVAAKRAREVTRKKSGLEISNLPGKLADCSSNNPAETELFIVEGDSAGGSAKSGRNREFQAILPIRGKILNVEKASMDKILANEEIRSLFTAMGTGFGAEFDVSKARYQKLVLMTDADVDGAHIRTLLLTLIYRYMKPILEAGYVYIAQPPIYGVKVGSEIKEYIQPGADQEIKLQEALARYSEGRTKPTIQRYKGLGEMDDHQLWETTMDPEHRLMARVSVDDAAEADKIFDMLMGDRVEPRREFIEENAVYSTLDV

> <PDB ID(s) of Target Chain>
4Z2C,4Z2D,4Z2E

> <UniProt (SwissProt) Recommended Name of Target Chain>
DNA gyrase subunit B

> <UniProt (SwissProt) Entry Name of Target Chain>
GYRB_STRPN

> <UniProt (SwissProt) Primary ID of Target Chain>
P0A4L9

> <UniProt (SwissProt) Secondary ID(s) of Target Chain>
P48373

> <UniProt (SwissProt) Alternative ID(s) of Target Chain>


> <UniProt (TrEMBL) Submitted Name of Target Chain>


> <UniProt (TrEMBL) Entry Name of Target Chain>


> <UniProt (TrEMBL) Primary ID of Target Chain>


> <UniProt (TrEMBL) Secondary ID(s) of Target Chain>


> <UniProt (TrEMBL) Alternative ID(s) of Target Chain>


$$$$

  Mrv0541 11241415502D          

 44 47  0  0  1  0            999 V2000
   10.7542   -7.9589    0.0000 C   0  0  0  0  0  0  0  0  0  0  0  0
   10.0397   -7.5464    0.0000 O   0  0  0  0  0  0  0  0  0  0  0  0
   10.0397   -6.7214    0.0000 C   0  0  2  0  0  0  0  0  0  0  0  0
    9.3253   -6.3089    0.0000 C   0  0  1  0  0  0  0  0  0  0  0  0
    8.6108   -6.7214    0.0000 O   0  0  0  0  0  0  0  0  0  0  0  0
    8.6108   -7.5464    0.0000 C   0  0  0  0  0  0  0  0  0  0  0  0
    9.3253   -7.9589    0.0000 O   0  0  0  0  0  0  0  0  0  0  0  0
    7.8963   -7.9589    0.0000 N   0  0  0  0  0  0  0  0  0  0  0  0
    9.3253   -5.4839    0.0000 C   0  0  2  0  0  0  0  0  0  0  0  0
    8.6108   -5.0714    0.0000 O   0  0  0  0  0  0  0  0  0  0  0  0
   10.0397   -5.0714    0.0000 C   0  0  1  0  0  0  0  0  0  0  0  0
   10.0397   -4.2464    0.0000 O   0  0  0  0  0  0  0  0  0  0  0  0
   10.7542   -3.8339    0.0000 C   0  0  0  0  0  0  0  0  0  0  0  0
   10.7542   -3.0089    0.0000 C   0  0  0  0  0  0  0  0  0  0  0  0
   11.4687   -2.5964    0.0000 C   0  0  0  0  0  0  0  0  0  0  0  0
   12.1831   -3.0089    0.0000 C   0  0  0  0  0  0  0  0  0  0  0  0
   12.8976   -2.5964    0.0000 C   0  0  0  0  0  0  0  0  0  0  0  0
   13.6121   -3.0089    0.0000 C   0  0  0  0  0  0  0  0  0  0  0  0
   14.3266   -2.5964    0.0000 N   0  0  0  0  0  0  0  0  0  0  0  0
   15.0410   -3.0089    0.0000 C   0  0  0  0  0  0  0  0  0  0  0  0
   15.0410   -3.8339    0.0000 O   0  0  0  0  0  0  0  0  0  0  0  0
   15.7555   -2.5964    0.0000 C   0  0  0  0  0  0  0  0  0  0  0  0
   15.7555   -1.7714    0.0000 C   0  0  0  0  0  0  0  0  0  0  0  0
   16.4700   -1.3589    0.0000 C   0  0  0  0  0  0  0  0  0  0  0  0
   17.1844   -1.7714    0.0000 C   0  0  0  0  0  0  0  0  0  0  0  0
   17.8989   -1.3589    0.0000 O   0  0  0  0  0  0  0  0  0  0  0  0
   17.1844   -2.5964    0.0000 C   0  0  0  0  0  0  0  0  0  0  0  0
   17.8989   -3.0089    0.0000 C   0  0  0  0  0  0  0  0  0  0  0  0
   18.6134   -2.5964    0.0000 C   0  0  0  0  0  0  0  0  0  0  0  0
   19.3279   -3.0089    0.0000 C   0  0  0  0  0  0  0  0  0  0  0  0
   20.0423   -2.5964    0.0000 C   0  0  0  0  0  0  0  0  0  0  0  0
   19.3279   -3.8339    0.0000 C   0  0  0  0  0  0  0  0  0  0  0  0
   16.4700   -3.0089    0.0000 C   0  0  0  0  0  0  0  0  0  0  0  0
   13.6121   -3.8339    0.0000 C   0  0  0  0  0  0  0  0  0  0  0  0
   14.3266   -4.2464    0.0000 O   0  0  0  0  0  0  0  0  0  0  0  0
   12.8976   -4.2464    0.0000 O   0  0  0  0  0  0  0  0  0  0  0  0
   12.1831   -3.8339    0.0000 C   0  0  0  0  0  0  0  0  0  0  0  0
   11.4687   -4.2464    0.0000 C   0  0  0  0  0  0  0  0  0  0  0  0
   11.4687   -5.0714    0.0000 C   0  0  0  0  0  0  0  0  0  0  0  0
   12.8976   -1.7714    0.0000 O   0  0  0  0  0  0  0  0  0  0  0  0
   10.7542   -5.4839    0.0000 O   0  0  0  0  0  0  0  0  0  0  0  0
   10.7542   -6.3089    0.0000 C   0  0  0  0  0  0  0  0  0  0  0  0
   11.5787   -6.3377    0.0000 C   0  0  0  0  0  0  0  0  0  0  0  0
   11.1914   -7.0085    0.0000 C   0  0  0  0  0  0  0  0  0  0  0  0
  1  2  1  0  0  0  0
  3  2  1  6  0  0  0
  4  3  1  0  0  0  0
  4  5  1  1  0  0  0
  5  6  1  0  0  0  0
  6  7  2  0  0  0  0
  6  8  1  0  0  0  0
  4  9  1  0  0  0  0
  9 10  1  6  0  0  0
  9 11  1  0  0  0  0
 11 12  1  1  0  0  0
 12 13  1  0  0  0  0
 13 14  2  0  0  0  0
 14 15  1  0  0  0  0
 15 16  2  0  0  0  0
 16 17  1  0  0  0  0
 17 18  2  0  0  0  0
 18 19  1  0  0  0  0
 19 20  1  0  0  0  0
 20 21  2  0  0  0  0
 20 22  1  0  0  0  0
 22 23  2  0  0  0  0
 23 24  1  0  0  0  0
 24 25  2  0  0  0  0
 25 26  1  0  0  0  0
 25 27  1  0  0  0  0
 27 28  1  0  0  0  0
 28 29  1  0  0  0  0
 29 30  2  0  0  0  0
 30 31  1  0  0  0  0
 30 32  1  0  0  0  0
 27 33  2  0  0  0  0
 22 33  1  0  0  0  0
 18 34  1  0  0  0  0
 34 35  2  0  0  0  0
 34 36  1  0  0  0  0
 36 37  1  0  0  0  0
 16 37  1  0  0  0  0
 37 38  2  0  0  0  0
 13 38  1  0  0  0  0
 38 39  1  0  0  0  0
 17 40  1  0  0  0  0
 11 41  1  0  0  0  0
 41 42  1  0  0  0  0
  3 42  1  0  0  0  0
 42 43  1  0  0  0  0
 42 44  1  0  0  0  0
M  END
> <From> 
www.bindingDB.org

> <BindingDB Reactant_set_id>
51036574

> <Ligand InChI>
InChI=1S/C31H36N2O11/c1-14(2)7-8-16-13-17(9-11-19(16)34)27(37)33-21-22(35)18-10-12-20(15(3)24(18)42-28(21)38)41-29-23(36)25(43-30(32)39)26(40-6)31(4,5)44-29/h7,9-13,23,25-26,29,34-36H,8H2,1-6H3,(H2,32,39)(H,33,37)/t23-,25-,26+,29-/m0/s1

> <Ligand InChI Key>
YJQPYGGHQPGBLI-FWPHEPGVSA-N

> <BindingDB MonomerID>
50423645

> <BindingDB Ligand Name>
Albamycin::Cathomycin::NOVOBIOCIN

> <Target Name Assigned by Curator or DataSource>
DNA gyrase subunit B

> <Target Source Organism According to Curator or DataSource>
Streptococcus pneumoniae

> <Ki (nM)>


> <IC50 (nM)>
 37

> <Kd (nM)>


> <EC50 (nM)>


> <kon (M-1-s-1)>


> <koff (s-1)>


> <pH>


> <Temp C>


> <Curation/DataSource>
ChEMBL

> <Article DOI>
10.1016/j.bmcl.2009.07.141

> <PMID>
19683922

> <PubChem AID>


> <Patent Number>


> <Authors>
Starr, JT; Sciotti, RJ; Hanna, DL; Huband, MD; Mullins, LM; Cai, H; Gage, JW; Lockard, M; Rauckhorst, MR; Owen, RM; Lall, MS; Tomilo, M; Chen, H; McCurdy, SP; Barbachyn, MR

> <Institution>
Pfizer Inc.

> <Link to Ligand in BindingDB>
http://www.bindingdb.org/bind/chemsearch/marvin/MolStructure.jsp?monomerid=50423645

> <Link to Ligand-Target Pair in BindingDB>
http://www.bindingdb.org/jsp/dbsearch/PrimarySearch_ki.jsp?energyterm=kJ/mole&tag=pol&polymerid=50005944&target=DNA+gyrase+subunit+B&column=ki&startPg=0&Increment=50&submit=Search

> <Link to Ligand-Target Pair in BindingDB>
http://www.bindingdb.org/jsp/dbsearch/PrimarySearch_ki.jsp?energyterm=kJ/mole&tag=r21&monomerid=50423645&enzyme=DNA+gyrase+subunit+B&column=ki&startPg=0&Increment=50&submit=Search

> <Ligand HET ID in PDB>


> <PDB ID(s) for Ligand-Target Complex>


> <PubChem CID>
71719647

> <PubChem SID>
164152520

> <ChEBI ID of Ligand>


> <ChEMBL ID of Ligand>


> <DrugBank ID of Ligand>


> <IUPHAR_GRAC ID of Ligand>


> <KEGG ID of Ligand>


> <ZINC ID of Ligand>
ZINC76945632

> <Number of Protein Chains in Target (>1 implies a multichain complex)>
1

> <BindingDB Target Chain Sequence>
MTEEIKNLQAQDYDASQIQVLEGLEAVRMRPGMYIGSTSKEGLHHLVWEIVDNSIDEALAGFASHIQVFIEPDDSITVVDDGRGIPVDIQEKTGRPAVETVFTVLHAGGKFGGGGYKVSGGLHGVGSSVVNALSTQLDVHVHKNGKIHYQEYRRGHVVADLEIVGDTDKTGTTVHFTPDPKIFTETTIFDFDKLNKRIQELAFLNRGLQISITDKRQGLEQTKHYHYEGGIASYVEYINENKDVIFDTPIYTDGEMDDITVEVAMQYTTGYHENVMSFANNIHTHEGGTHEQGFRTALTRVINDYARKNKLLKDNEDNLTGEDVREGLTAVISVKHPNPQFEGQTKTKLGNSEVVKITNRLFSEAFSDFLMENPQIAKRIVEKGILAAKARVAAKRAREVTRKKSGLEISNLPGKLADCSSNNPAETELFIVEGDSAGGSAKSGRNREFQAILPIRGKILNVEKASMDKILANEEIRSLFTAMGTGFGAEFDVSKARYQKLVLMTDADVDGAHIRTLLLTLIYRYMKPILEAGYVYIAQPPIYGVKVGSEIKEYIQPGADQEIKLQEALARYSEGRTKPTIQRYKGLGEMDDHQLWETTMDPEHRLMARVSVDDAAEADKIFDMLMGDRVEPRREFIEENAVYSTLDV

> <PDB ID(s) of Target Chain>
4Z2C,4Z2D,4Z2E

> <UniProt (SwissProt) Recommended Name of Target Chain>
DNA gyrase subunit B

> <UniProt (SwissProt) Entry Name of Target Chain>
GYRB_STRPN

> <UniProt (SwissProt) Primary ID of Target Chain>
P0A4L9

> <UniProt (SwissProt) Secondary ID(s) of Target Chain>
P48373

> <UniProt (SwissProt) Alternative ID(s) of Target Chain>


> <UniProt (TrEMBL) Submitted Name of Target Chain>


> <UniProt (TrEMBL) Entry Name of Target Chain>


> <UniProt (TrEMBL) Primary ID of Target Chain>


> <UniProt (TrEMBL) Secondary ID(s) of Target Chain>


> <UniProt (TrEMBL) Alternative ID(s) of Target Chain>


$$$$

  SciTegic12201720502D

 25 27  0  0  0  0            999 V2000
   12.5868   -7.8829    0.0000 O   0  0
   12.9954   -8.5879    0.0000 C   0  0
   13.8126   -8.5879    0.0000 C   0  0
   14.2212   -9.2970    0.0000 O   0  0
   14.2212   -7.8829    0.0000 O   0  0
   12.5868   -9.2970    0.0000 N   0  0
   11.7696   -9.2970    0.0000 C   0  0
   11.2895   -8.6337    0.0000 N   0  0
   10.5123   -8.8884    0.0000 C   0  0
    9.8032   -8.4798    0.0000 C   0  0
    9.0982   -8.8884    0.0000 C   0  0
    9.0982   -9.7056    0.0000 C   0  0
    8.3891  -10.1142    0.0000 N   0  0
    7.6842   -9.7056    0.0000 C   0  0
    7.6842   -8.8884    0.0000 C   0  0
    8.3433   -8.4082    0.0000 C   0  0
    8.0928   -7.6310    0.0000 C   0  0
    8.5688   -6.9677    0.0000 Br  0  0
    7.2756   -7.6310    0.0000 C   0  0
    6.7954   -6.9677    0.0000 Br  0  0
    7.0209   -8.4082    0.0000 N   0  0
    6.9751  -10.1142    0.0000 O   0  0
    9.8032  -10.1142    0.0000 C   0  0
   10.5123   -9.7056    0.0000 C   0  0
   11.2895   -9.9561    0.0000 S   0  0
  1  2  2  0
  2  3  1  0
  3  4  1  0
  3  5  2  0
  2  6  1  0
  6  7  1  0
  7  8  2  0
  8  9  1  0
  9 10  2  0
 10 11  1  0
 11 12  2  0
 12 13  1  0
 13 14  1  0
 14 15  1  0
 15 16  2  0
 16 17  1  0
 17 18  1  0
 17 19  2  0
 19 20  1  0
 19 21  1  0
 15 21  1  0
 14 22  2  0
 12 23  1  0
 23 24  2  0
  9 24  1  0
 24 25  1  0
  7 25  1  0
M  END
> <From> 
www.bindingDB.org

> <BindingDB Reactant_set_id>
50524122

> <Ligand InChI>
InChI=1S/C14H8Br2N4O4S/c15-6-4-8(18-10(6)16)11(21)17-5-1-2-7-9(3-5)25-14(19-7)20-12(22)13(23)24/h1-4,18H,(H,17,21)(H,23,24)(H,19,20,22)

> <Ligand InChI Key>
FAKRMULLXOZHQH-UHFFFAOYSA-N

> <BindingDB MonomerID>
50198237

> <BindingDB Ligand Name>
CHEMBL3898662

> <Target Name Assigned by Curator or DataSource>
DNA Gyrase Subunit B

> <Target Source Organism According to Curator or DataSource>
Escherichia coli

> <Ki (nM)>


> <IC50 (nM)>
 38

> <Kd (nM)>


> <EC50 (nM)>


> <kon (M-1-s-1)>


> <koff (s-1)>


> <pH>


> <Temp C>


> <Curation/DataSource>
ChEMBL

> <Article DOI>
10.1021/acs.jmedchem.6b00864

> <PMID>
27541007

> <PubChem AID>


> <Patent Number>


> <Authors>
Gjorgjieva, M; Tomaic, T; Barancokova, M; Katsamakas, S; Ila, J; Tammela, P; Peterlin Maic, L; Kikelj, D

> <Institution>
University of Ljubljana

> <Link to Ligand in BindingDB>
http://www.bindingdb.org/bind/chemsearch/marvin/MolStructure.jsp?monomerid=50198237

> <Link to Ligand-Target Pair in BindingDB>
http://www.bindingdb.org/jsp/dbsearch/PrimarySearch_ki.jsp?energyterm=kJ/mole&tag=pol&polymerid=2630&target=DNA+Gyrase+Subunit+B&column=ki&startPg=0&Increment=50&submit=Search

> <Link to Ligand-Target Pair in BindingDB>
http://www.bindingdb.org/jsp/dbsearch/PrimarySearch_ki.jsp?energyterm=kJ/mole&tag=r21&monomerid=50198237&enzyme=DNA+Gyrase+Subunit+B&column=ki&startPg=0&Increment=50&submit=Search

> <Ligand HET ID in PDB>


> <PDB ID(s) for Ligand-Target Complex>


> <PubChem CID>
134134055

> <PubChem SID>
375978189

> <ChEBI ID of Ligand>


> <ChEMBL ID of Ligand>


> <DrugBank ID of Ligand>


> <IUPHAR_GRAC ID of Ligand>


> <KEGG ID of Ligand>


> <ZINC ID of Ligand>


> <Number of Protein Chains in Target (>1 implies a multichain complex)>
1

> <BindingDB Target Chain Sequence>
MSNSYDSSSIKVLKGLDAVRKRPGMYIGDTDDGTGLHHMVFEVVDNAIDEALAGHCKEII
VTIHADNSVSVQDDGRGIPTGIHPEEGVSAAEVIMTVLHAGGKFDDNSYKVSGGLHGVGV
SVVNALSQKLELVIQREGKIHRQIYEHGVPQAPLAVTGETEKTGTMVRFWPSLETFTNVT
EFEYEILAKRLRELSFLNSGVSIRLRDKRDGKEDHFHYEGGIKAFVEYLNKNKTPIHPNI
FYFSTEKDGIGVEVALQWNDGFQENIYCFTNNIPQRDGGTHLAGFRAAMTRTLNAYMDKE
GYSKKAKVSATGDDAREGLIAVVSVKVPDPKFSSQTKDKLVSSEVKSAVEQQMNELLAEY
LLENPTDAKIVVGKIIDAARAREAARRAREMTRRKGALDLAGLPGKLADCQERDPALSEL
YLVEGDSAGGSAKQGRNRKNQAILPLKGKILNVEKARFDKMLSSQEVATLITALGCGIGR
DEYNPDKLRYHSIIIMTDADVDGSHIRTLLLTFFYRQMPEIVERGHVYIAQPPLYKVKKG
KQEQYIKDDEAMDQYQISIALDGATLHTNASAPALAGEALEKLVSEYNATQKMINRMERR
YPKAMLKELIYQPTLTEADLSDEQTVTRWVNALVSELNDKEQHGSQWKFDVHTNAEQNLF
EPIVRVRTHGVDTDYPLDHEFITGGEYRRICTLGEKLRGLLEEDAFIERGERRQPVASFE
QALDWLVKESRRGLSIQRYKGLGEMNPEQLWETTMDPESRRMLRVTVKDAIAADQLFTTL
MGDAVEPRRAFIEENALKAANIDI

> <PDB ID(s) of Target Chain>
1KZN,3G7E,3NUH,4DUH,4HYP,4KFG,4PRV,4PRX,4PU9,4WUB,4WUC,4WUD,4XTJ,4ZVI,5L3J,5MMN,5MMO,5MMP,5Z4H,5Z4O,5Z9B,5Z9E,5Z9F,5Z9L,5Z9M,5Z9N,5Z9Q,6ENG,6F86,6F8J,6F94,6F96

> <UniProt (SwissProt) Recommended Name of Target Chain>
DNA gyrase subunit B

> <UniProt (SwissProt) Entry Name of Target Chain>
GYRB_ECOLI

> <UniProt (SwissProt) Primary ID of Target Chain>
P0AES6

> <UniProt (SwissProt) Secondary ID(s) of Target Chain>
O08438,P06982,Q2M811

> <UniProt (SwissProt) Alternative ID(s) of Target Chain>


> <UniProt (TrEMBL) Submitted Name of Target Chain>


> <UniProt (TrEMBL) Entry Name of Target Chain>


> <UniProt (TrEMBL) Primary ID of Target Chain>


> <UniProt (TrEMBL) Secondary ID(s) of Target Chain>


> <UniProt (TrEMBL) Alternative ID(s) of Target Chain>


$$$$

  Mrv0541 11241412072D          

 33 37  0  0  0  0            999 V2000
    7.7539   -4.8819    0.0000 C   0  0  0  0  0  0  0  0  0  0  0  0
    8.4703   -4.4685    0.0000 C   0  0  0  0  0  0  0  0  0  0  0  0
    8.4675   -3.6380    0.0000 C   0  0  0  0  0  0  0  0  0  0  0  0
    7.7521   -3.2289    0.0000 N   0  0  0  0  0  0  0  0  0  0  0  0
    7.0391   -4.4690    0.0000 C   0  0  0  0  0  0  0  0  0  0  0  0
    7.0403   -3.6401    0.0000 C   0  0  0  0  0  0  0  0  0  0  0  0
    6.2523   -3.3827    0.0000 N   0  0  0  0  0  0  0  0  0  0  0  0
    5.7641   -4.0526    0.0000 C   0  0  0  0  0  0  0  0  0  0  0  0
    6.2503   -4.7239    0.0000 C   0  0  0  0  0  0  0  0  0  0  0  0
    9.1819   -4.8791    0.0000 C   0  0  0  0  0  0  0  0  0  0  0  0
    9.1819   -5.7053    0.0000 C   0  0  0  0  0  0  0  0  0  0  0  0
    9.8961   -6.1166    0.0000 N   0  0  0  0  0  0  0  0  0  0  0  0
   10.6109   -5.7029    0.0000 C   0  0  0  0  0  0  0  0  0  0  0  0
   10.6070   -4.8736    0.0000 C   0  0  0  0  0  0  0  0  0  0  0  0
    9.8921   -4.4660    0.0000 C   0  0  0  0  0  0  0  0  0  0  0  0
   11.3219   -4.4561    0.0000 C   0  0  0  0  0  0  0  0  0  0  0  0
   12.0385   -4.8649    0.0000 O   0  0  0  0  0  0  0  0  0  0  0  0
   11.3177   -3.6311    0.0000 O   0  0  0  0  0  0  0  0  0  0  0  0
    7.7560   -5.7031    0.0000 N   0  0  0  0  0  0  0  0  0  0  0  0
    7.0885   -6.1879    0.0000 C   0  0  0  0  0  0  0  0  0  0  0  0
    7.3433   -6.9726    0.0000 C   0  0  0  0  0  0  0  0  0  0  0  0
    8.1683   -6.9728    0.0000 C   0  0  0  0  0  0  0  0  0  0  0  0
    8.4233   -6.1882    0.0000 N   0  0  0  0  0  0  0  0  0  0  0  0
    8.6531   -7.6403    0.0000 C   0  0  0  0  0  0  0  0  0  0  0  0
    8.3174   -8.3939    0.0000 F   0  0  0  0  0  0  0  0  0  0  0  0
    9.4736   -7.5542    0.0000 F   0  0  0  0  0  0  0  0  0  0  0  0
    9.0583   -8.3500    0.0000 F   0  0  0  0  0  0  0  0  0  0  0  0
    4.9391   -4.0514    0.0000 C   0  0  0  0  0  0  0  0  0  0  0  0
    4.5276   -3.3364    0.0000 N   0  0  0  0  0  0  0  0  0  0  0  0
    4.5255   -4.7653    0.0000 O   0  0  0  0  0  0  0  0  0  0  0  0
    3.7026   -3.3352    0.0000 C   0  0  0  0  0  0  0  0  0  0  0  0
    2.9902   -2.9248    0.0000 C   0  0  0  0  0  0  0  0  0  0  0  0
    2.9890   -3.7498    0.0000 C   0  0  0  0  0  0  0  0  0  0  0  0
  3  4  1  0  0  0  0
  6  7  1  0  0  0  0
  7  8  1  0  0  0  0
 16 17  1  0  0  0  0
 16 18  2  0  0  0  0
 14 16  1  0  0  0  0
 19 20  1  0  0  0  0
  8  9  2  0  0  0  0
  9  5  1  0  0  0  0
  4  6  2  0  0  0  0
  5  6  1  0  0  0  0
 10 11  2  0  0  0  0
 20 21  2  0  0  0  0
 21 22  1  0  0  0  0
 22 23  2  0  0  0  0
 23 19  1  0  0  0  0
  1 19  1  0  0  0  0
  1  2  1  0  0  0  0
 22 24  1  0  0  0  0
 11 12  1  0  0  0  0
 24 25  1  0  0  0  0
  5  1  2  0  0  0  0
 24 26  1  0  0  0  0
 12 13  2  0  0  0  0
 24 27  1  0  0  0  0
  2  3  2  0  0  0  0
  8 28  1  0  0  0  0
 13 14  1  0  0  0  0
 28 29  1  0  0  0  0
 28 30  2  0  0  0  0
 14 15  2  0  0  0  0
 29 31  1  0  0  0  0
 32 31  1  0  0  0  0
 33 32  1  0  0  0  0
 31 33  1  0  0  0  0
 15 10  1  0  0  0  0
  2 10  1  0  0  0  0
M  END
> <From> 
www.bindingDB.org

> <BindingDB Reactant_set_id>
50945992

> <Ligand InChI>
InChI=1S/C21H15F3N6O3/c22-21(23,24)16-3-4-30(29-16)17-13-6-15(19(31)27-12-1-2-12)28-18(13)26-9-14(17)10-5-11(20(32)33)8-25-7-10/h3-9,12H,1-2H2,(H,26,28)(H,27,31)(H,32,33)

> <Ligand InChI Key>
RQFOOLLFBDPYCK-UHFFFAOYSA-N

> <BindingDB MonomerID>
50388095

> <BindingDB Ligand Name>
CHEMBL2059373

> <Target Name Assigned by Curator or DataSource>
DNA Gyrase Subunit B

> <Target Source Organism According to Curator or DataSource>
Staphylococcus aureus

> <Ki (nM)>


> <IC50 (nM)>
 39

> <Kd (nM)>


> <EC50 (nM)>


> <kon (M-1-s-1)>


> <koff (s-1)>


> <pH>


> <Temp C>


> <Curation/DataSource>
ChEMBL

> <Article DOI>
10.1016/j.bmcl.2012.05.128

> <PMID>
22814212

> <PubChem AID>


> <Patent Number>


> <Authors>
Manchester, JI; Dussault, DD; Rose, JA; Boriack-Sjodin, PA; Uria-Nickelsen, M; Ioannidis, G; Bist, S; Fleming, P; Hull, KG

> <Institution>
AstraZeneca

> <Link to Ligand in BindingDB>
http://www.bindingdb.org/bind/chemsearch/marvin/MolStructure.jsp?monomerid=50388095

> <Link to Ligand-Target Pair in BindingDB>
http://www.bindingdb.org/jsp/dbsearch/PrimarySearch_ki.jsp?energyterm=kJ/mole&tag=pol&polymerid=2626&target=DNA+Gyrase+Subunit+B&column=ki&startPg=0&Increment=50&submit=Search

> <Link to Ligand-Target Pair in BindingDB>
http://www.bindingdb.org/jsp/dbsearch/PrimarySearch_ki.jsp?energyterm=kJ/mole&tag=r21&monomerid=50388095&enzyme=DNA+Gyrase+Subunit+B&column=ki&startPg=0&Increment=50&submit=Search

> <Ligand HET ID in PDB>


> <PDB ID(s) for Ligand-Target Complex>


> <PubChem CID>
62705688

> <PubChem SID>
160867178

> <ChEBI ID of Ligand>


> <ChEMBL ID of Ligand>
CHEMBL2059373

> <DrugBank ID of Ligand>


> <IUPHAR_GRAC ID of Ligand>


> <KEGG ID of Ligand>


> <ZINC ID of Ligand>
ZINC84690407

> <Number of Protein Chains in Target (>1 implies a multichain complex)>
1

> <BindingDB Target Chain Sequence>
MVTALSDVNNTDNYGAGQIQVLEGLEAVRKRPGMYIGSTSERGLHHLVWEIVDNSIDEALAGYANQIEVVIEKDNWIKVTDNGRGIPVDIQEKMGRPAVEVILTVLHAGGKFGGGGYKVSGGLHGVGSSVVNALSQDLEVYVHRNETIYHQAYKKGVPQFDLKEVGTTDKTGTVIRFKADGEIFTETTVYNYETLQQRIRELAFLNKGIQITLRDERDEENVREDSYHYEGGIKSYVELLNENKEPIHDEPIYIHQSKDDIEVEIAIQYNSGYATNLLTYANNIHTYEGGTHEDGFKRALTRVLNSYGLSSKIMKEEKDRLSGEDTREGMTAIISIKHGDPQFEGQTKTKLGNSEVRQVVDKLFSEHFERFLYENPQVARTVVEKGIMAARARVAAKKAREVTRRKSALDVASLPGKLADCSSKSPEECEIFLVEGDSAGGSTKSGRDSRTQAILPLRGKILNVEKARLDRILNNNEIRQMITAFGTGIGGDFDLAKARYHKIVIMTDADVDGAHIRTLLLTFFYRFMRPLIEAGYVYIAQPPLYKLTQGKQKYYVYNDRELDKLKSELNPTPKWSIARYKGLGEMNADQLWETTMNPEHRALLQVKLEDAIEADQTFEMLMGDVVENRRQFIEDNAVYANLDF

> <PDB ID(s) of Target Chain>


> <UniProt (SwissProt) Recommended Name of Target Chain>
DNA gyrase subunit B

> <UniProt (SwissProt) Entry Name of Target Chain>
GYRB_STAAU

> <UniProt (SwissProt) Primary ID of Target Chain>
P0A0K8

> <UniProt (SwissProt) Secondary ID(s) of Target Chain>
P20832

> <UniProt (SwissProt) Alternative ID(s) of Target Chain>


> <UniProt (TrEMBL) Submitted Name of Target Chain>


> <UniProt (TrEMBL) Entry Name of Target Chain>


> <UniProt (TrEMBL) Primary ID of Target Chain>


> <UniProt (TrEMBL) Secondary ID(s) of Target Chain>


> <UniProt (TrEMBL) Alternative ID(s) of Target Chain>


$$$$

  SciTegic09291413392D

 27 30  0  0  0  0            999 V2000
   20.2605  -11.2705    0.0000 C   0  0
   20.2594  -12.0979    0.0000 C   0  0
   20.9741  -12.5107    0.0000 N   0  0
   20.9723  -10.8578    0.0000 C   0  0
   21.6877  -11.2668    0.0000 C   0  0
   21.6926  -12.0979    0.0000 C   0  0
   22.4844  -12.3501    0.0000 S   0  0
   22.9690  -11.6749    0.0000 C   0  0
   22.4765  -11.0055    0.0000 N   0  0
   19.5481  -10.8584    0.0000 C   0  0
   19.5492  -10.0323    0.0000 C   0  0
   18.8355   -9.6200    0.0000 C   0  0
   18.1201  -10.0327    0.0000 C   0  0
   18.1230  -10.8620    0.0000 N   0  0
   23.7940  -11.6699    0.0000 N   0  0
   24.2022  -10.9531    0.0000 C   0  0
   25.0272  -10.9482    0.0000 N   0  0
   23.7856  -10.2410    0.0000 O   0  0
   25.4354  -10.2314    0.0000 C   0  0
   26.2604  -10.2265    0.0000 C   0  0
   19.5446  -12.5098    0.0000 O   0  0
   18.8311  -11.2717    0.0000 C   0  0
   19.5439  -13.3347    0.0000 C   0  0  1  0  0  0
   18.8798  -13.8188    0.0000 C   0  0
   19.1341  -14.6036    0.0000 C   0  0
   19.9592  -14.6043    0.0000 O   0  0
   20.2146  -13.8199    0.0000 C   0  0
  1  2  2  0
  2  3  1  0
  3  6  2  0
  5  4  2  0
  4  1  1  0
  5  6  1  0
  6  7  1  0
  7  8  1  0
  8  9  2  0
  9  5  1  0
 10 11  2  0
 11 12  1  0
 12 13  2  0
 13 14  1  0
 14 22  2  0
 22 10  1  0
  1 10  1  0
  8 15  1  0
 15 16  1  0
 16 17  1  0
 16 18  2  0
 17 19  1  0
 19 20  1  0
  2 21  1  0
 23 21  1  6
 23 24  1  0
 24 25  1  0
 25 26  1  0
 26 27  1  0
 27 23  1  0
M  END
> <From> 
www.bindingDB.org

> <BindingDB Reactant_set_id>
50089906

> <Ligand InChI>
InChI=1S/C18H19N5O3S/c1-2-20-17(24)23-18-21-14-8-13(11-4-3-6-19-9-11)15(22-16(14)27-18)26-12-5-7-25-10-12/h3-4,6,8-9,12H,2,5,7,10H2,1H3,(H2,20,21,23,24)/t12-/m0/s1

> <Ligand InChI Key>
BABKJKPOVFNQHK-LBPRGKRZSA-N

> <BindingDB MonomerID>
50010350

> <BindingDB Ligand Name>
CHEMBL3263594

> <Target Name Assigned by Curator or DataSource>
DNA gyrase subunit B

> <Target Source Organism According to Curator or DataSource>


> <Ki (nM)>


> <IC50 (nM)>
 39

> <Kd (nM)>


> <EC50 (nM)>


> <kon (M-1-s-1)>


> <koff (s-1)>


> <pH>


> <Temp C>


> <Curation/DataSource>
ChEMBL

> <Article DOI>
10.1021/jm401268f

> <PMID>
24088190

> <PubChem AID>


> <Patent Number>


> <Authors>
Ahuja, V; Ahuja, V; Basavarajappa, H; Basavarajappa, H; P, SH; P, SH; Boriack-Sjodin, PA; Boriack-Sjodin, PA; McKinney, D; McKinney, D; Ganguly, S; Ganguly, S; Kranthi, U; Kranthi, U; Gaonkar, S; Gaonkar, S; Jena, Lk; Jena, Lk; Ghorpade, SR; Ghorpade, SR; Ghosh, A; Ghosh, A; Barde, S; Barde, S; Kale, MG; Kale, MG; Koushik, K; Koushik, K; Kumar, CN; Kumar, CN; Manjunatha, MR; Manjunatha, MR; Ogg, D; Ogg, D; Panduga, V; Panduga, V; Ramya, VK; Ramya, VK; Reddy, J; Reddy, J; Kumar, KN; Kumar, KN; Giridhar, J; Giridhar, J; Rudrapatna, S; Rudrapatna, S; Sharma, S; Sharma, S; Tucker, JA; Tucker, JA; Vachaspati, P; Vachaspati, P; Waterson, D; Waterson, D; de Sousa, SM; de Sousa, SM

> <Institution>
AstraZeneca India Pvt. Ltd.

> <Link to Ligand in BindingDB>
http://www.bindingdb.org/bind/chemsearch/marvin/MolStructure.jsp?monomerid=50010350

> <Link to Ligand-Target Pair in BindingDB>
http://www.bindingdb.org/jsp/dbsearch/PrimarySearch_ki.jsp?energyterm=kJ/mole&tag=pol&polymerid=50006452&target=DNA+gyrase+subunit+B&column=ki&startPg=0&Increment=50&submit=Search

> <Link to Ligand-Target Pair in BindingDB>
http://www.bindingdb.org/jsp/dbsearch/PrimarySearch_ki.jsp?energyterm=kJ/mole&tag=r21&monomerid=50010350&enzyme=DNA+gyrase+subunit+B&column=ki&startPg=0&Increment=50&submit=Search

> <Ligand HET ID in PDB>


> <PDB ID(s) for Ligand-Target Complex>


> <PubChem CID>
72713297

> <PubChem SID>
103923164

> <ChEBI ID of Ligand>


> <ChEMBL ID of Ligand>
CHEMBL3263594

> <DrugBank ID of Ligand>


> <IUPHAR_GRAC ID of Ligand>


> <KEGG ID of Ligand>


> <ZINC ID of Ligand>
ZINC26971767

> <Number of Protein Chains in Target (>1 implies a multichain complex)>
1

> <BindingDB Target Chain Sequence>
MAAQKNNAPKEYGADSITILEGLEAVRKRPGMYIGSTGERGLHHLIWEVVDNAVDEAMAGFATRVDVKIHADGSVEVRDDGRGIPVEMHATGMPTIDVVMTQLHAGGKFDGETYAVSGGLHGVGVSVVNALSTRLEATVLRDGYEWFQYYDRSVPGKLKQGGETKETGTTIRFWADPEIFETTDYNFETVARRLQEMAFLNKGLTIELTDERVTAEEVVDDVVKDTAEAPKTADEKAAEATGPSKVKHRVFHYPGGLVDYVKHINRTKTPIQQSIIDFDGKGPGHEVEIAMQWNAGYSESVHTFANTINTHEGGTHEEGFRAALTSVVNRYAKDKKLLKDKDPNLTGDDIREGLAAVISVKVAEPQFEGQTKTKLGNTEVKSFVQKICNEQLQHWFEANPAEAKTVVNKAVSSAQARIAARKARELVRRKSATDIGGLPGKLADCRSTDPSKSELYVVEGDSAGGSAKSGRDSMFQAILPLRGKIINVEKARIDRVLKNTEVQSIITALGTGIHDEFDISKLRYHKIVLMADADVDGQHISTLLLTLLFRFMKPLVENGHIFLAQPPLYKLKWQRSEPEFAYSDRERDGLLEAGRAAGKKINVDDGIQRYKGLGEMDAKELWETTMDPSVRVLRQVTLDDAAAADELFSILMGEDVEARRSFITRNAKDVRFLDV

> <PDB ID(s) of Target Chain>
4BAE

> <UniProt (SwissProt) Recommended Name of Target Chain>
DNA gyrase subunit B

> <UniProt (SwissProt) Entry Name of Target Chain>
GYRB_MYCSM

> <UniProt (SwissProt) Primary ID of Target Chain>
P0C559

> <UniProt (SwissProt) Secondary ID(s) of Target Chain>
P48355,Q59555

> <UniProt (SwissProt) Alternative ID(s) of Target Chain>


> <UniProt (TrEMBL) Submitted Name of Target Chain>


> <UniProt (TrEMBL) Entry Name of Target Chain>


> <UniProt (TrEMBL) Primary ID of Target Chain>


> <UniProt (TrEMBL) Secondary ID(s) of Target Chain>


> <UniProt (TrEMBL) Alternative ID(s) of Target Chain>


$$$$

  SciTegic09261414462D

 24 26  0  0  0  0            999 V2000
   25.7607  -19.2617    0.0000 C   0  0
   25.7596  -20.0813    0.0000 C   0  0
   26.4676  -20.4902    0.0000 C   0  0
   27.1773  -20.0808    0.0000 C   0  0
   27.1745  -19.2581    0.0000 C   0  0
   26.4659  -18.8529    0.0000 N   0  0
   25.0529  -18.8533    0.0000 N   0  0
   24.3453  -19.2621    0.0000 C   0  0
   23.6375  -18.8536    0.0000 N   0  0
   24.3455  -20.0793    0.0000 O   0  0
   22.9299  -19.2624    0.0000 C   0  0
   22.2221  -18.8540    0.0000 C   0  0
   27.8862  -20.4859    0.0000 C   0  0
   27.9729  -21.2984    0.0000 N   0  0
   28.6322  -20.1524    0.0000 S   0  0
   29.1800  -20.7587    0.0000 C   0  0
   28.7741  -21.4643    0.0000 C   0  0
   29.1821  -22.1666    0.0000 C   0  0
   29.9959  -22.1645    0.0000 C   0  0
   30.4000  -21.4542    0.0000 C   0  0
   29.9896  -20.7548    0.0000 C   0  0
   30.3940  -20.0447    0.0000 C   0  0
   31.2112  -20.0398    0.0000 N   0  0
   29.9813  -19.3394    0.0000 O   0  0
  1  2  2  0
  2  3  1  0
  3  4  2  0
  4  5  1  0
  5  6  2  0
  6  1  1  0
  1  7  1  0
  7  8  1  0
  8  9  1  0
  8 10  2  0
  9 11  1  0
 11 12  1  0
 13 14  2  0
 14 17  1  0
 16 15  1  0
 15 13  1  0
  4 13  1  0
 16 17  2  0
 17 18  1  0
 18 19  2  0
 19 20  1  0
 20 21  2  0
 21 16  1  0
 21 22  1  0
 22 23  1  0
 22 24  2  0
M  END
> <From> 
www.bindingDB.org

> <BindingDB Reactant_set_id>
50083262

> <Ligand InChI>
InChI=1S/C16H15N5O2S/c1-2-18-16(23)21-12-7-6-9(8-19-12)15-20-11-5-3-4-10(14(17)22)13(11)24-15/h3-8H,2H2,1H3,(H2,17,22)(H2,18,19,21,23)

> <Ligand InChI Key>
HRMROSXWRLSVKN-UHFFFAOYSA-N

> <BindingDB MonomerID>
50006558

> <BindingDB Ligand Name>
CHEMBL3235078

> <Target Name Assigned by Curator or DataSource>
DNA Gyrase Subunit B

> <Target Source Organism According to Curator or DataSource>
Staphylococcus aureus

> <Ki (nM)>


> <IC50 (nM)>
 39

> <Kd (nM)>


> <EC50 (nM)>


> <kon (M-1-s-1)>


> <koff (s-1)>


> <pH>


> <Temp C>


> <Curation/DataSource>
ChEMBL

> <Article DOI>
10.1021/jm401208b

> <PMID>
24098982

> <PubChem AID>


> <Patent Number>


> <Authors>
Basarab, GS; Basarab, GS; Boriack-Sjodin, PA; Boriack-Sjodin, PA; Illingworth, R; Illingworth, R; Manchester, JI; Manchester, JI; Dangel, B; Dangel, B; Sriram, S; Sriram, S

> <Institution>
AstraZeneca R&amp;D Boston

> <Link to Ligand in BindingDB>
http://www.bindingdb.org/bind/chemsearch/marvin/MolStructure.jsp?monomerid=50006558

> <Link to Ligand-Target Pair in BindingDB>
http://www.bindingdb.org/jsp/dbsearch/PrimarySearch_ki.jsp?energyterm=kJ/mole&tag=pol&polymerid=2626&target=DNA+Gyrase+Subunit+B&column=ki&startPg=0&Increment=50&submit=Search

> <Link to Ligand-Target Pair in BindingDB>
http://www.bindingdb.org/jsp/dbsearch/PrimarySearch_ki.jsp?energyterm=kJ/mole&tag=r21&monomerid=50006558&enzyme=DNA+Gyrase+Subunit+B&column=ki&startPg=0&Increment=50&submit=Search

> <Ligand HET ID in PDB>


> <PDB ID(s) for Ligand-Target Complex>


> <PubChem CID>
59208370

> <PubChem SID>
103919959

> <ChEBI ID of Ligand>


> <ChEMBL ID of Ligand>
CHEMBL3235078

> <DrugBank ID of Ligand>


> <IUPHAR_GRAC ID of Ligand>


> <KEGG ID of Ligand>


> <ZINC ID of Ligand>
ZINC26376784

> <Number of Protein Chains in Target (>1 implies a multichain complex)>
1

> <BindingDB Target Chain Sequence>
MVTALSDVNNTDNYGAGQIQVLEGLEAVRKRPGMYIGSTSERGLHHLVWEIVDNSIDEALAGYANQIEVVIEKDNWIKVTDNGRGIPVDIQEKMGRPAVEVILTVLHAGGKFGGGGYKVSGGLHGVGSSVVNALSQDLEVYVHRNETIYHQAYKKGVPQFDLKEVGTTDKTGTVIRFKADGEIFTETTVYNYETLQQRIRELAFLNKGIQITLRDERDEENVREDSYHYEGGIKSYVELLNENKEPIHDEPIYIHQSKDDIEVEIAIQYNSGYATNLLTYANNIHTYEGGTHEDGFKRALTRVLNSYGLSSKIMKEEKDRLSGEDTREGMTAIISIKHGDPQFEGQTKTKLGNSEVRQVVDKLFSEHFERFLYENPQVARTVVEKGIMAARARVAAKKAREVTRRKSALDVASLPGKLADCSSKSPEECEIFLVEGDSAGGSTKSGRDSRTQAILPLRGKILNVEKARLDRILNNNEIRQMITAFGTGIGGDFDLAKARYHKIVIMTDADVDGAHIRTLLLTFFYRFMRPLIEAGYVYIAQPPLYKLTQGKQKYYVYNDRELDKLKSELNPTPKWSIARYKGLGEMNADQLWETTMNPEHRALLQVKLEDAIEADQTFEMLMGDVVENRRQFIEDNAVYANLDF

> <PDB ID(s) of Target Chain>


> <UniProt (SwissProt) Recommended Name of Target Chain>
DNA gyrase subunit B

> <UniProt (SwissProt) Entry Name of Target Chain>
GYRB_STAAU

> <UniProt (SwissProt) Primary ID of Target Chain>
P0A0K8

> <UniProt (SwissProt) Secondary ID(s) of Target Chain>
P20832

> <UniProt (SwissProt) Alternative ID(s) of Target Chain>


> <UniProt (TrEMBL) Submitted Name of Target Chain>


> <UniProt (TrEMBL) Entry Name of Target Chain>


> <UniProt (TrEMBL) Primary ID of Target Chain>


> <UniProt (TrEMBL) Secondary ID(s) of Target Chain>


> <UniProt (TrEMBL) Alternative ID(s) of Target Chain>


$$$$

  Mrv0541 11241420052D          

 26 28  0  0  0  0            999 V2000
   10.9693  -12.6124    0.0000 C   0  0  0  0  0  0  0  0  0  0  0  0
   10.9681  -13.4397    0.0000 C   0  0  0  0  0  0  0  0  0  0  0  0
   11.6830  -13.8526    0.0000 N   0  0  0  0  0  0  0  0  0  0  0  0
   11.6811  -12.1995    0.0000 C   0  0  0  0  0  0  0  0  0  0  0  0
   10.2548  -12.2001    0.0000 C   0  0  0  0  0  0  0  0  0  0  0  0
   10.2580  -11.3740    0.0000 C   0  0  0  0  0  0  0  0  0  0  0  0
    9.5442  -10.9618    0.0000 N   0  0  0  0  0  0  0  0  0  0  0  0
    8.8289  -11.3745    0.0000 C   0  0  0  0  0  0  0  0  0  0  0  0
    8.8317  -12.2038    0.0000 C   0  0  0  0  0  0  0  0  0  0  0  0
    9.5461  -12.6124    0.0000 C   0  0  0  0  0  0  0  0  0  0  0  0
   12.3965  -12.6087    0.0000 C   0  0  0  0  0  0  0  0  0  0  0  0
   12.3968  -13.4398    0.0000 C   0  0  0  0  0  0  0  0  0  0  0  0
   13.1872  -13.6963    0.0000 S   0  0  0  0  0  0  0  0  0  0  0  0
   13.6755  -13.0238    0.0000 C   0  0  0  0  0  0  0  0  0  0  0  0
   13.1868  -12.3517    0.0000 N   0  0  0  0  0  0  0  0  0  0  0  0
   14.5005  -13.0235    0.0000 N   0  0  0  0  0  0  0  0  0  0  0  0
   14.9128  -12.3089    0.0000 C   0  0  0  0  0  0  0  0  0  0  0  0
   15.7378  -12.3087    0.0000 O   0  0  0  0  0  0  0  0  0  0  0  0
   14.5000  -11.5946    0.0000 N   0  0  0  0  0  0  0  0  0  0  0  0
   14.9123  -10.8800    0.0000 C   0  0  0  0  0  0  0  0  0  0  0  0
   14.4996  -10.1657    0.0000 C   0  0  0  0  0  0  0  0  0  0  0  0
   10.2533  -13.8517    0.0000 O   0  0  0  0  0  0  0  0  0  0  0  0
   11.6832  -14.6776    0.0000 C   0  0  0  0  0  0  0  0  0  0  0  0
   10.9688  -15.0903    0.0000 C   0  0  0  0  0  0  0  0  0  0  0  0
   10.2543  -14.6780    0.0000 F   0  0  0  0  0  0  0  0  0  0  0  0
   10.9690  -15.9153    0.0000 F   0  0  0  0  0  0  0  0  0  0  0  0
  1  2  1  0  0  0  0
  2  3  1  0  0  0  0
  3 12  1  0  0  0  0
 11  4  1  0  0  0  0
  4  1  2  0  0  0  0
  1  5  1  0  0  0  0
  5  6  2  0  0  0  0
  6  7  1  0  0  0  0
  7  8  2  0  0  0  0
  8  9  1  0  0  0  0
  9 10  2  0  0  0  0
 10  5  1  0  0  0  0
 11 12  2  0  0  0  0
 12 13  1  0  0  0  0
 13 14  1  0  0  0  0
 14 15  2  0  0  0  0
 15 11  1  0  0  0  0
 14 16  1  0  0  0  0
 16 17  1  0  0  0  0
 17 18  2  0  0  0  0
 17 19  1  0  0  0  0
 19 20  1  0  0  0  0
 20 21  1  0  0  0  0
  2 22  2  0  0  0  0
  3 23  1  0  0  0  0
 23 24  1  0  0  0  0
 24 25  1  0  0  0  0
 24 26  1  0  0  0  0
M  END
> <From> 
www.bindingDB.org

> <BindingDB Reactant_set_id>
51091628

> <Ligand InChI>
InChI=1S/C16H15F2N5O2S/c1-2-20-15(25)22-16-21-11-6-10(9-4-3-5-19-7-9)13(24)23(8-12(17)18)14(11)26-16/h3-7,12H,2,8H2,1H3,(H2,20,21,22,25)

> <Ligand InChI Key>
OROGWDTYOWLRMS-UHFFFAOYSA-N

> <BindingDB MonomerID>
50447316

> <BindingDB Ligand Name>
CHEMBL3114218

> <Target Name Assigned by Curator or DataSource>
DNA gyrase subunit B

> <Target Source Organism According to Curator or DataSource>


> <Ki (nM)>


> <IC50 (nM)>
 40

> <Kd (nM)>


> <EC50 (nM)>


> <kon (M-1-s-1)>


> <koff (s-1)>


> <pH>


> <Temp C>


> <Curation/DataSource>
ChEMBL

> <Article DOI>
10.1016/j.bmcl.2013.12.080

> <PMID>
24405701

> <PubChem AID>


> <Patent Number>


> <Authors>
Kale, RR; Kale, MG; Waterson, D; Raichurkar, A; Hameed, SP; Manjunatha, MR; Kishore Reddy, BK; Malolanarasimhan, K; Shinde, V; Koushik, K; Jena, LK; Menasinakai, S; Humnabadkar, V; Madhavapeddi, P; Basavarajappa, H; Sharma, S; Nandishaiah, R; Mahesh Kumar, KN; Ganguly, S; Ahuja, V; Gaonkar, S; Naveen Kumar, CN; Ogg, D; Boriack-Sjodin, PA; Sambandamurthy, VK; de Sousa, SM; Ghorpade, SR

> <Institution>
AstraZeneca

> <Link to Ligand in BindingDB>
http://www.bindingdb.org/bind/chemsearch/marvin/MolStructure.jsp?monomerid=50447316

> <Link to Ligand-Target Pair in BindingDB>
http://www.bindingdb.org/jsp/dbsearch/PrimarySearch_ki.jsp?energyterm=kJ/mole&tag=pol&polymerid=50006452&target=DNA+gyrase+subunit+B&column=ki&startPg=0&Increment=50&submit=Search

> <Link to Ligand-Target Pair in BindingDB>
http://www.bindingdb.org/jsp/dbsearch/PrimarySearch_ki.jsp?energyterm=kJ/mole&tag=r21&monomerid=50447316&enzyme=DNA+gyrase+subunit+B&column=ki&startPg=0&Increment=50&submit=Search

> <Ligand HET ID in PDB>


> <PDB ID(s) for Ligand-Target Complex>


> <PubChem CID>
76335930

> <PubChem SID>
194945212

> <ChEBI ID of Ligand>


> <ChEMBL ID of Ligand>
CHEMBL3114218

> <DrugBank ID of Ligand>


> <IUPHAR_GRAC ID of Ligand>


> <KEGG ID of Ligand>


> <ZINC ID of Ligand>


> <Number of Protein Chains in Target (>1 implies a multichain complex)>
1

> <BindingDB Target Chain Sequence>
MAAQKNNAPKEYGADSITILEGLEAVRKRPGMYIGSTGERGLHHLIWEVVDNAVDEAMAGFATRVDVKIHADGSVEVRDDGRGIPVEMHATGMPTIDVVMTQLHAGGKFDGETYAVSGGLHGVGVSVVNALSTRLEATVLRDGYEWFQYYDRSVPGKLKQGGETKETGTTIRFWADPEIFETTDYNFETVARRLQEMAFLNKGLTIELTDERVTAEEVVDDVVKDTAEAPKTADEKAAEATGPSKVKHRVFHYPGGLVDYVKHINRTKTPIQQSIIDFDGKGPGHEVEIAMQWNAGYSESVHTFANTINTHEGGTHEEGFRAALTSVVNRYAKDKKLLKDKDPNLTGDDIREGLAAVISVKVAEPQFEGQTKTKLGNTEVKSFVQKICNEQLQHWFEANPAEAKTVVNKAVSSAQARIAARKARELVRRKSATDIGGLPGKLADCRSTDPSKSELYVVEGDSAGGSAKSGRDSMFQAILPLRGKIINVEKARIDRVLKNTEVQSIITALGTGIHDEFDISKLRYHKIVLMADADVDGQHISTLLLTLLFRFMKPLVENGHIFLAQPPLYKLKWQRSEPEFAYSDRERDGLLEAGRAAGKKINVDDGIQRYKGLGEMDAKELWETTMDPSVRVLRQVTLDDAAAADELFSILMGEDVEARRSFITRNAKDVRFLDV

> <PDB ID(s) of Target Chain>
4BAE

> <UniProt (SwissProt) Recommended Name of Target Chain>
DNA gyrase subunit B

> <UniProt (SwissProt) Entry Name of Target Chain>
GYRB_MYCSM

> <UniProt (SwissProt) Primary ID of Target Chain>
P0C559

> <UniProt (SwissProt) Secondary ID(s) of Target Chain>
P48355,Q59555

> <UniProt (SwissProt) Alternative ID(s) of Target Chain>


> <UniProt (TrEMBL) Submitted Name of Target Chain>


> <UniProt (TrEMBL) Entry Name of Target Chain>


> <UniProt (TrEMBL) Primary ID of Target Chain>


> <UniProt (TrEMBL) Secondary ID(s) of Target Chain>


> <UniProt (TrEMBL) Alternative ID(s) of Target Chain>


$$$$

  Mrv0541 11241420052D          

 26 29  0  0  0  0            999 V2000
    2.7819  -12.1915    0.0000 C   0  0  0  0  0  0  0  0  0  0  0  0
    2.7807  -13.0189    0.0000 C   0  0  0  0  0  0  0  0  0  0  0  0
    3.4956  -13.4317    0.0000 N   0  0  0  0  0  0  0  0  0  0  0  0
    3.4937  -11.7788    0.0000 C   0  0  0  0  0  0  0  0  0  0  0  0
    2.0673  -11.7792    0.0000 C   0  0  0  0  0  0  0  0  0  0  0  0
    2.0706  -10.9533    0.0000 C   0  0  0  0  0  0  0  0  0  0  0  0
    1.3568  -10.5410    0.0000 N   0  0  0  0  0  0  0  0  0  0  0  0
    0.6415  -10.9538    0.0000 C   0  0  0  0  0  0  0  0  0  0  0  0
    0.6443  -11.7830    0.0000 C   0  0  0  0  0  0  0  0  0  0  0  0
    1.3586  -12.1915    0.0000 C   0  0  0  0  0  0  0  0  0  0  0  0
    4.2091  -12.1878    0.0000 C   0  0  0  0  0  0  0  0  0  0  0  0
    4.2094  -13.0189    0.0000 C   0  0  0  0  0  0  0  0  0  0  0  0
    4.9998  -13.2755    0.0000 S   0  0  0  0  0  0  0  0  0  0  0  0
    5.4881  -12.6030    0.0000 C   0  0  0  0  0  0  0  0  0  0  0  0
    4.9994  -11.9309    0.0000 N   0  0  0  0  0  0  0  0  0  0  0  0
    6.3131  -12.6027    0.0000 N   0  0  0  0  0  0  0  0  0  0  0  0
    6.7254  -11.8881    0.0000 C   0  0  0  0  0  0  0  0  0  0  0  0
    7.5504  -11.8878    0.0000 O   0  0  0  0  0  0  0  0  0  0  0  0
    6.3126  -11.1737    0.0000 N   0  0  0  0  0  0  0  0  0  0  0  0
    6.7249  -10.4592    0.0000 C   0  0  0  0  0  0  0  0  0  0  0  0
    6.3122   -9.7448    0.0000 C   0  0  0  0  0  0  0  0  0  0  0  0
    2.0659  -13.4308    0.0000 O   0  0  0  0  0  0  0  0  0  0  0  0
    3.4958  -14.2567    0.0000 C   0  0  0  0  0  0  0  0  0  0  0  0
    2.7814  -14.6694    0.0000 C   0  0  0  0  0  0  0  0  0  0  0  0
    1.9543  -14.6728    0.0000 C   0  0  0  0  0  0  0  0  0  0  0  0
    2.3670  -15.3872    0.0000 C   0  0  0  0  0  0  0  0  0  0  0  0
  1  2  1  0  0  0  0
  2  3  1  0  0  0  0
  3 12  1  0  0  0  0
 11  4  1  0  0  0  0
  4  1  2  0  0  0  0
  1  5  1  0  0  0  0
  5  6  2  0  0  0  0
  6  7  1  0  0  0  0
  7  8  2  0  0  0  0
  8  9  1  0  0  0  0
  9 10  2  0  0  0  0
 10  5  1  0  0  0  0
 11 12  2  0  0  0  0
 12 13  1  0  0  0  0
 13 14  1  0  0  0  0
 14 15  2  0  0  0  0
 15 11  1  0  0  0  0
 14 16  1  0  0  0  0
 16 17  1  0  0  0  0
 17 18  2  0  0  0  0
 17 19  1  0  0  0  0
 19 20  1  0  0  0  0
 20 21  1  0  0  0  0
  2 22  2  0  0  0  0
  3 23  1  0  0  0  0
 23 24  1  0  0  0  0
 25 24  1  0  0  0  0
 26 25  1  0  0  0  0
 24 26  1  0  0  0  0
M  END
> <From> 
www.bindingDB.org

> <BindingDB Reactant_set_id>
51091629

> <Ligand InChI>
InChI=1S/C18H19N5O2S/c1-2-20-17(25)22-18-21-14-8-13(12-4-3-7-19-9-12)15(24)23(16(14)26-18)10-11-5-6-11/h3-4,7-9,11H,2,5-6,10H2,1H3,(H2,20,21,22,25)

> <Ligand InChI Key>
DBEJDOXBHGKTLP-UHFFFAOYSA-N

> <BindingDB MonomerID>
50447317

> <BindingDB Ligand Name>
CHEMBL3114217

> <Target Name Assigned by Curator or DataSource>
DNA gyrase subunit B

> <Target Source Organism According to Curator or DataSource>


> <Ki (nM)>


> <IC50 (nM)>
 40

> <Kd (nM)>


> <EC50 (nM)>


> <kon (M-1-s-1)>


> <koff (s-1)>


> <pH>


> <Temp C>


> <Curation/DataSource>
ChEMBL

> <Article DOI>
10.1016/j.bmcl.2013.12.080

> <PMID>
24405701

> <PubChem AID>


> <Patent Number>


> <Authors>
Kale, RR; Kale, MG; Waterson, D; Raichurkar, A; Hameed, SP; Manjunatha, MR; Kishore Reddy, BK; Malolanarasimhan, K; Shinde, V; Koushik, K; Jena, LK; Menasinakai, S; Humnabadkar, V; Madhavapeddi, P; Basavarajappa, H; Sharma, S; Nandishaiah, R; Mahesh Kumar, KN; Ganguly, S; Ahuja, V; Gaonkar, S; Naveen Kumar, CN; Ogg, D; Boriack-Sjodin, PA; Sambandamurthy, VK; de Sousa, SM; Ghorpade, SR

> <Institution>
AstraZeneca

> <Link to Ligand in BindingDB>
http://www.bindingdb.org/bind/chemsearch/marvin/MolStructure.jsp?monomerid=50447317

> <Link to Ligand-Target Pair in BindingDB>
http://www.bindingdb.org/jsp/dbsearch/PrimarySearch_ki.jsp?energyterm=kJ/mole&tag=pol&polymerid=50006452&target=DNA+gyrase+subunit+B&column=ki&startPg=0&Increment=50&submit=Search

> <Link to Ligand-Target Pair in BindingDB>
http://www.bindingdb.org/jsp/dbsearch/PrimarySearch_ki.jsp?energyterm=kJ/mole&tag=r21&monomerid=50447317&enzyme=DNA+gyrase+subunit+B&column=ki&startPg=0&Increment=50&submit=Search

> <Ligand HET ID in PDB>


> <PDB ID(s) for Ligand-Target Complex>


> <PubChem CID>
76325031

> <PubChem SID>
194945213

> <ChEBI ID of Ligand>


> <ChEMBL ID of Ligand>
CHEMBL3114217

> <DrugBank ID of Ligand>


> <IUPHAR_GRAC ID of Ligand>


> <KEGG ID of Ligand>


> <ZINC ID of Ligand>


> <Number of Protein Chains in Target (>1 implies a multichain complex)>
1

> <BindingDB Target Chain Sequence>
MAAQKNNAPKEYGADSITILEGLEAVRKRPGMYIGSTGERGLHHLIWEVVDNAVDEAMAGFATRVDVKIHADGSVEVRDDGRGIPVEMHATGMPTIDVVMTQLHAGGKFDGETYAVSGGLHGVGVSVVNALSTRLEATVLRDGYEWFQYYDRSVPGKLKQGGETKETGTTIRFWADPEIFETTDYNFETVARRLQEMAFLNKGLTIELTDERVTAEEVVDDVVKDTAEAPKTADEKAAEATGPSKVKHRVFHYPGGLVDYVKHINRTKTPIQQSIIDFDGKGPGHEVEIAMQWNAGYSESVHTFANTINTHEGGTHEEGFRAALTSVVNRYAKDKKLLKDKDPNLTGDDIREGLAAVISVKVAEPQFEGQTKTKLGNTEVKSFVQKICNEQLQHWFEANPAEAKTVVNKAVSSAQARIAARKARELVRRKSATDIGGLPGKLADCRSTDPSKSELYVVEGDSAGGSAKSGRDSMFQAILPLRGKIINVEKARIDRVLKNTEVQSIITALGTGIHDEFDISKLRYHKIVLMADADVDGQHISTLLLTLLFRFMKPLVENGHIFLAQPPLYKLKWQRSEPEFAYSDRERDGLLEAGRAAGKKINVDDGIQRYKGLGEMDAKELWETTMDPSVRVLRQVTLDDAAAADELFSILMGEDVEARRSFITRNAKDVRFLDV

> <PDB ID(s) of Target Chain>
4BAE

> <UniProt (SwissProt) Recommended Name of Target Chain>
DNA gyrase subunit B

> <UniProt (SwissProt) Entry Name of Target Chain>
GYRB_MYCSM

> <UniProt (SwissProt) Primary ID of Target Chain>
P0C559

> <UniProt (SwissProt) Secondary ID(s) of Target Chain>
P48355,Q59555

> <UniProt (SwissProt) Alternative ID(s) of Target Chain>


> <UniProt (TrEMBL) Submitted Name of Target Chain>


> <UniProt (TrEMBL) Entry Name of Target Chain>


> <UniProt (TrEMBL) Primary ID of Target Chain>


> <UniProt (TrEMBL) Secondary ID(s) of Target Chain>


> <UniProt (TrEMBL) Alternative ID(s) of Target Chain>


$$$$

  Mrv0541 11241420052D          

 27 29  0  0  0  0            999 V2000
   10.9026  -18.3456    0.0000 C   0  0  0  0  0  0  0  0  0  0  0  0
   10.9015  -19.1730    0.0000 C   0  0  0  0  0  0  0  0  0  0  0  0
   11.6162  -19.5859    0.0000 N   0  0  0  0  0  0  0  0  0  0  0  0
   11.6145  -17.9329    0.0000 C   0  0  0  0  0  0  0  0  0  0  0  0
   10.1880  -17.9333    0.0000 C   0  0  0  0  0  0  0  0  0  0  0  0
   10.1913  -17.1074    0.0000 C   0  0  0  0  0  0  0  0  0  0  0  0
    9.4776  -16.6951    0.0000 N   0  0  0  0  0  0  0  0  0  0  0  0
    8.7622  -17.1079    0.0000 C   0  0  0  0  0  0  0  0  0  0  0  0
    8.7651  -17.9371    0.0000 C   0  0  0  0  0  0  0  0  0  0  0  0
    9.4794  -18.3456    0.0000 C   0  0  0  0  0  0  0  0  0  0  0  0
   12.3299  -18.3420    0.0000 C   0  0  0  0  0  0  0  0  0  0  0  0
   12.3301  -19.1730    0.0000 C   0  0  0  0  0  0  0  0  0  0  0  0
   13.1206  -19.4296    0.0000 S   0  0  0  0  0  0  0  0  0  0  0  0
   13.6089  -18.7570    0.0000 C   0  0  0  0  0  0  0  0  0  0  0  0
   13.1202  -18.0850    0.0000 N   0  0  0  0  0  0  0  0  0  0  0  0
   14.4339  -18.7568    0.0000 N   0  0  0  0  0  0  0  0  0  0  0  0
   14.8462  -18.0422    0.0000 C   0  0  0  0  0  0  0  0  0  0  0  0
   15.6711  -18.0419    0.0000 O   0  0  0  0  0  0  0  0  0  0  0  0
   14.4334  -17.3278    0.0000 N   0  0  0  0  0  0  0  0  0  0  0  0
   14.8457  -16.6133    0.0000 C   0  0  0  0  0  0  0  0  0  0  0  0
   14.4329  -15.8989    0.0000 C   0  0  0  0  0  0  0  0  0  0  0  0
   10.1867  -19.5849    0.0000 O   0  0  0  0  0  0  0  0  0  0  0  0
   11.6165  -20.4108    0.0000 C   0  0  0  0  0  0  0  0  0  0  0  0
   10.9022  -20.8235    0.0000 C   0  0  0  0  0  0  0  0  0  0  0  0
   10.9024  -21.6485    0.0000 C   0  0  0  0  0  0  0  0  0  0  0  0
   10.1880  -22.0612    0.0000 C   0  0  0  0  0  0  0  0  0  0  0  0
   11.6169  -22.0608    0.0000 C   0  0  0  0  0  0  0  0  0  0  0  0
  1  2  1  0  0  0  0
  2  3  1  0  0  0  0
  3 12  1  0  0  0  0
 11  4  1  0  0  0  0
  4  1  2  0  0  0  0
  1  5  1  0  0  0  0
  5  6  2  0  0  0  0
  6  7  1  0  0  0  0
  7  8  2  0  0  0  0
  8  9  1  0  0  0  0
  9 10  2  0  0  0  0
 10  5  1  0  0  0  0
 11 12  2  0  0  0  0
 12 13  1  0  0  0  0
 13 14  1  0  0  0  0
 14 15  2  0  0  0  0
 15 11  1  0  0  0  0
 14 16  1  0  0  0  0
 16 17  1  0  0  0  0
 17 18  2  0  0  0  0
 17 19  1  0  0  0  0
 19 20  1  0  0  0  0
 20 21  1  0  0  0  0
  2 22  2  0  0  0  0
  3 23  1  0  0  0  0
 23 24  1  0  0  0  0
 24 25  1  0  0  0  0
 25 26  1  0  0  0  0
 25 27  1  0  0  0  0
M  END
> <From> 
www.bindingDB.org

> <BindingDB Reactant_set_id>
51091625

> <Ligand InChI>
InChI=1S/C19H23N5O2S/c1-4-21-18(26)23-19-22-15-10-14(13-6-5-8-20-11-13)16(25)24(17(15)27-19)9-7-12(2)3/h5-6,8,10-12H,4,7,9H2,1-3H3,(H2,21,22,23,26)

> <Ligand InChI Key>
BZVIHDQMYRAGBF-UHFFFAOYSA-N

> <BindingDB MonomerID>
50447313

> <BindingDB Ligand Name>
CHEMBL3114221

> <Target Name Assigned by Curator or DataSource>
DNA gyrase subunit B

> <Target Source Organism According to Curator or DataSource>


> <Ki (nM)>


> <IC50 (nM)>
 40

> <Kd (nM)>


> <EC50 (nM)>


> <kon (M-1-s-1)>


> <koff (s-1)>


> <pH>


> <Temp C>


> <Curation/DataSource>
ChEMBL

> <Article DOI>
10.1016/j.bmcl.2013.12.080

> <PMID>
24405701

> <PubChem AID>


> <Patent Number>


> <Authors>
Kale, RR; Kale, MG; Waterson, D; Raichurkar, A; Hameed, SP; Manjunatha, MR; Kishore Reddy, BK; Malolanarasimhan, K; Shinde, V; Koushik, K; Jena, LK; Menasinakai, S; Humnabadkar, V; Madhavapeddi, P; Basavarajappa, H; Sharma, S; Nandishaiah, R; Mahesh Kumar, KN; Ganguly, S; Ahuja, V; Gaonkar, S; Naveen Kumar, CN; Ogg, D; Boriack-Sjodin, PA; Sambandamurthy, VK; de Sousa, SM; Ghorpade, SR

> <Institution>
AstraZeneca

> <Link to Ligand in BindingDB>
http://www.bindingdb.org/bind/chemsearch/marvin/MolStructure.jsp?monomerid=50447313

> <Link to Ligand-Target Pair in BindingDB>
http://www.bindingdb.org/jsp/dbsearch/PrimarySearch_ki.jsp?energyterm=kJ/mole&tag=pol&polymerid=50006452&target=DNA+gyrase+subunit+B&column=ki&startPg=0&Increment=50&submit=Search

> <Link to Ligand-Target Pair in BindingDB>
http://www.bindingdb.org/jsp/dbsearch/PrimarySearch_ki.jsp?energyterm=kJ/mole&tag=r21&monomerid=50447313&enzyme=DNA+gyrase+subunit+B&column=ki&startPg=0&Increment=50&submit=Search

> <Ligand HET ID in PDB>


> <PDB ID(s) for Ligand-Target Complex>


> <PubChem CID>
76317727

> <PubChem SID>
194945209

> <ChEBI ID of Ligand>


> <ChEMBL ID of Ligand>
CHEMBL3114221

> <DrugBank ID of Ligand>


> <IUPHAR_GRAC ID of Ligand>


> <KEGG ID of Ligand>


> <ZINC ID of Ligand>


> <Number of Protein Chains in Target (>1 implies a multichain complex)>
1

> <BindingDB Target Chain Sequence>
MAAQKNNAPKEYGADSITILEGLEAVRKRPGMYIGSTGERGLHHLIWEVVDNAVDEAMAGFATRVDVKIHADGSVEVRDDGRGIPVEMHATGMPTIDVVMTQLHAGGKFDGETYAVSGGLHGVGVSVVNALSTRLEATVLRDGYEWFQYYDRSVPGKLKQGGETKETGTTIRFWADPEIFETTDYNFETVARRLQEMAFLNKGLTIELTDERVTAEEVVDDVVKDTAEAPKTADEKAAEATGPSKVKHRVFHYPGGLVDYVKHINRTKTPIQQSIIDFDGKGPGHEVEIAMQWNAGYSESVHTFANTINTHEGGTHEEGFRAALTSVVNRYAKDKKLLKDKDPNLTGDDIREGLAAVISVKVAEPQFEGQTKTKLGNTEVKSFVQKICNEQLQHWFEANPAEAKTVVNKAVSSAQARIAARKARELVRRKSATDIGGLPGKLADCRSTDPSKSELYVVEGDSAGGSAKSGRDSMFQAILPLRGKIINVEKARIDRVLKNTEVQSIITALGTGIHDEFDISKLRYHKIVLMADADVDGQHISTLLLTLLFRFMKPLVENGHIFLAQPPLYKLKWQRSEPEFAYSDRERDGLLEAGRAAGKKINVDDGIQRYKGLGEMDAKELWETTMDPSVRVLRQVTLDDAAAADELFSILMGEDVEARRSFITRNAKDVRFLDV

> <PDB ID(s) of Target Chain>
4BAE

> <UniProt (SwissProt) Recommended Name of Target Chain>
DNA gyrase subunit B

> <UniProt (SwissProt) Entry Name of Target Chain>
GYRB_MYCSM

> <UniProt (SwissProt) Primary ID of Target Chain>
P0C559

> <UniProt (SwissProt) Secondary ID(s) of Target Chain>
P48355,Q59555

> <UniProt (SwissProt) Alternative ID(s) of Target Chain>


> <UniProt (TrEMBL) Submitted Name of Target Chain>


> <UniProt (TrEMBL) Entry Name of Target Chain>


> <UniProt (TrEMBL) Primary ID of Target Chain>


> <UniProt (TrEMBL) Secondary ID(s) of Target Chain>


> <UniProt (TrEMBL) Alternative ID(s) of Target Chain>


$$$$
 
  Mrv0541 11221409182D          

 44 47  0  0  0  0            999 V2000
   -0.2473    0.9000    0.0000 C   0  0  0  0  0  0  0  0  0  0  0  0
   -0.2484    0.0727    0.0000 C   0  0  0  0  0  0  0  0  0  0  0  0
    0.4664   -0.3402    0.0000 C   0  0  0  0  0  0  0  0  0  0  0  0
    0.4646    1.3128    0.0000 C   0  0  0  0  0  0  0  0  0  0  0  0
    1.1800    0.9037    0.0000 C   0  0  0  0  0  0  0  0  0  0  0  0
    1.1788    0.0752    0.0000 C   0  0  0  0  0  0  0  0  0  0  0  0
    1.8918   -0.3378    0.0000 C   0  0  0  0  0  0  0  0  0  0  0  0
    2.6104    0.0732    0.0000 C   0  0  0  0  0  0  0  0  0  0  0  0
    2.6116    0.9017    0.0000 C   0  0  0  0  0  0  0  0  0  0  0  0
    1.8941    1.3192    0.0000 O   0  0  0  0  0  0  0  0  0  0  0  0
    3.3271    1.3124    0.0000 O   0  0  0  0  0  0  0  0  0  0  0  0
    3.3237   -0.3413    0.0000 N   0  0  0  0  0  0  0  0  0  0  0  0
    4.0394    0.0692    0.0000 C   0  0  0  0  0  0  0  0  0  0  0  0
    4.7527   -0.3453    0.0000 C   0  0  0  0  0  0  0  0  0  0  0  0
    4.0417    0.8942    0.0000 O   0  0  0  0  0  0  0  0  0  0  0  0
    4.7449   -1.1677    0.0000 C   0  0  0  0  0  0  0  0  0  0  0  0
    5.4574   -1.5821    0.0000 C   0  0  0  0  0  0  0  0  0  0  0  0
    6.1740   -1.1716    0.0000 C   0  0  0  0  0  0  0  0  0  0  0  0
    6.1737   -0.3423    0.0000 C   0  0  0  0  0  0  0  0  0  0  0  0
    5.4606    0.0684    0.0000 C   0  0  0  0  0  0  0  0  0  0  0  0
    6.8879   -1.5851    0.0000 O   0  0  0  0  0  0  0  0  0  0  0  0
    5.4547   -2.4071    0.0000 C   0  0  0  0  0  0  0  0  0  0  0  0
    6.1678   -2.8220    0.0000 C   0  0  0  0  0  0  0  0  0  0  0  0
    6.1651   -3.6470    0.0000 C   0  0  0  0  0  0  0  0  0  0  0  0
    5.4493   -4.0571    0.0000 C   0  0  0  0  0  0  0  0  0  0  0  0
    6.8782   -4.0618    0.0000 C   0  0  0  0  0  0  0  0  0  0  0  0
    1.8894   -1.1628    0.0000 O   0  0  0  0  0  0  0  0  0  0  0  0
   -0.9618    1.3124    0.0000 O   0  0  0  0  0  0  0  0  0  0  0  0
   -1.6762    0.8997    0.0000 C   0  0  2  0  0  0  0  0  0  0  0  0
   -2.3887    1.3169    0.0000 O   0  0  0  0  0  0  0  0  0  0  0  0
   -3.1009    0.9077    0.0000 C   0  0  0  0  0  0  0  0  0  0  0  0
   -3.1050    0.0824    0.0000 C   0  0  1  0  0  0  0  0  0  0  0  0
   -2.3906   -0.3322    0.0000 C   0  0  2  0  0  0  0  0  0  0  0  0
   -1.6721    0.0786    0.0000 C   0  0  1  0  0  0  0  0  0  0  0  0
   -0.9575   -0.3336    0.0000 O   0  0  0  0  0  0  0  0  0  0  0  0
   -2.3932   -1.1572    0.0000 O   0  0  0  0  0  0  0  0  0  0  0  0
   -3.8209   -0.3276    0.0000 O   0  0  0  0  0  0  0  0  0  0  0  0
   -4.5339    0.0874    0.0000 C   0  0  0  0  0  0  0  0  0  0  0  0
   -3.3208    1.7083    0.0000 C   0  0  0  0  0  0  0  0  0  0  0  0
   -3.9042    0.6958    0.0000 C   0  0  0  0  0  0  0  0  0  0  0  0
   -3.1090   -1.5674    0.0000 C   0  0  0  0  0  0  0  0  0  0  0  0
   -3.1116   -2.3924    0.0000 N   0  0  0  0  0  0  0  0  0  0  0  0
   -3.8221   -1.1526    0.0000 O   0  0  0  0  0  0  0  0  0  0  0  0
    0.4621    2.1378    0.0000 C   0  0  0  0  0  0  0  0  0  0  0  0
 18 21  1  0  0  0  0
  9 10  1  0  0  0  0
 17 22  1  0  0  0  0
  5  6  1  0  0  0  0
 22 23  1  0  0  0  0
  9 11  2  0  0  0  0
 23 24  2  0  0  0  0
 24 25  1  0  0  0  0
  8 12  1  0  0  0  0
 24 26  1  0  0  0  0
  2  3  1  0  0  0  0
  7 27  1  0  0  0  0
 12 13  1  0  0  0  0
  1 28  1  0  0  0  0
  3  6  2  0  0  0  0
 29 28  1  1  0  0  0
 29 30  1  0  0  0  0
 13 14  1  0  0  0  0
  1  2  2  0  0  0  0
 13 15  2  0  0  0  0
  5  4  2  0  0  0  0
 14 16  2  0  0  0  0
 34 29  1  0  0  0  0
 30 31  1  0  0  0  0
 32 31  1  0  0  0  0
 33 32  1  0  0  0  0
 33 34  1  0  0  0  0
  4  1  1  0  0  0  0
 34 35  1  6  0  0  0
 16 17  1  0  0  0  0
 33 36  1  6  0  0  0
  5 10  1  0  0  0  0
 32 37  1  1  0  0  0
 17 18  2  0  0  0  0
 37 38  1  0  0  0  0
  6  7  1  0  0  0  0
 31 39  1  0  0  0  0
 18 19  1  0  0  0  0
 31 40  1  0  0  0  0
  7  8  2  0  0  0  0
 36 41  1  0  0  0  0
 19 20  2  0  0  0  0
 41 42  1  0  0  0  0
 20 14  1  0  0  0  0
 41 43  2  0  0  0  0
  8  9  1  0  0  0  0
  4 44  1  0  0  0  0
M  END
> <From> 
www.bindingDB.org

> <BindingDB Reactant_set_id>
50524126

> <Ligand InChI>
InChI=1S/C31H36N2O11/c1-14(2)7-8-16-13-17(9-11-19(16)34)27(37)33-21-22(35)18-10-12-20(15(3)24(18)42-28(21)38)41-29-23(36)25(43-30(32)39)26(40-6)31(4,5)44-29/h7,9-13,23,25-26,29,34-36H,8H2,1-6H3,(H2,32,39)(H,33,37)/t23-,25+,26-,29-/m1/s1

> <Ligand InChI Key>
YJQPYGGHQPGBLI-KGSXXDOSSA-N

> <BindingDB MonomerID>
50226181

> <BindingDB Ligand Name>
(3R,4S,5R,6R)-5-hydroxy-6-(4-hydroxy-3-(4-hydroxy-3-(3-methylbut-2-enyl)benzamido)-2-oxo-2H-chromen-7-yloxy)-3-methoxy-2,2-dimethyl-tetrahydro-2H-pyran-4-yl carbamate::(3R,4S,5R,6R)-5-hydroxy-6-(4-hydroxy-3-(4-hydroxy-3-(3-methylbut-2-enyl)benzamido)-8-methyl-2-oxo-2H-chromen-7-yloxy)-3-methoxy-2,2-dimethyl-tetrahydro-2H-pyran-4-yl carbamate::CHEMBL36506::Carbamic acid (3R,4S,5R,6R)-5-hydroxy-6-{4-hydroxy-3-[4-hydroxy-3-(3-methyl-but-2-enyl)-benzoylamino]-8-methyl-2-oxo-2H-chromen-7-yloxy}-3-methoxy-2,2-dimethyl-tetrahydro-pyran-4-yl ester::Carbamic acid (3R,4S,5R,6R)-5-hydroxy-6-{4-hydroxy-3-[4-hydroxy-3-(4-methyl-pent-3-enyl)-benzoylamino]-8-methyl-2-oxo-2H-chromen-7-yloxy}-3-methoxy-2,2-dimethyl-tetrahydro-pyran-4-yl ester::Carbamic acid 5-hydroxy-6-{4-hydroxy-3-[4-hydroxy-3-(3-methyl-but-2-enyl)-benzoylamino]-8-methyl-2-oxo-2H-chromen-7-yloxy}-3-methoxy-2,2-dimethyl-tetrahydro-pyran-4-yl ester::Carbamic acid 5-hydroxy-6-{4-hydroxy-3-[4-hydroxy-3-(3-methyl-but-2-enyl)-benzoylamino]-8-methyl-2-oxo-2H-chromen-7-yloxy}-3-methoxy-2,2-dimethyl-tetrahydro-pyran-4-yl ester(Novobiocin)::NOVOBIOCIN

> <Target Name Assigned by Curator or DataSource>
DNA gyrase

> <Target Source Organism According to Curator or DataSource>
Staphylococcus aureus

> <Ki (nM)>


> <IC50 (nM)>
 40

> <Kd (nM)>


> <EC50 (nM)>


> <kon (M-1-s-1)>


> <koff (s-1)>


> <pH>


> <Temp C>


> <Curation/DataSource>
ChEMBL

> <Article DOI>
10.1021/acs.jmedchem.6b00864

> <PMID>
27541007

> <PubChem AID>


> <Patent Number>


> <Authors>
Gjorgjieva, M; Tomaic, T; Barancokova, M; Katsamakas, S; Ila, J; Tammela, P; Peterlin Maic, L; Kikelj, D

> <Institution>
University of Ljubljana

> <Link to Ligand in BindingDB>
http://www.bindingdb.org/bind/chemsearch/marvin/MolStructure.jsp?monomerid=50226181

> <Link to Ligand-Target Pair in BindingDB>
http://www.bindingdb.org/jsp/dbsearch/PrimarySearch_ki.jsp?energyterm=kJ/mole&tag=pol&polymerid=2626&target=DNA+gyrase&column=ki&startPg=0&Increment=50&submit=Search

> <Link to Ligand-Target Pair in BindingDB>
http://www.bindingdb.org/jsp/dbsearch/PrimarySearch_ki.jsp?energyterm=kJ/mole&tag=r21&monomerid=50226181&enzyme=DNA+gyrase&column=ki&startPg=0&Increment=50&submit=Search

> <Ligand HET ID in PDB>
NOV

> <PDB ID(s) for Ligand-Target Complex>
1AJ6,1KIJ,1S14,3LPS,4URN,4URO

> <PubChem CID>
54675769

> <PubChem SID>
104097057

> <ChEBI ID of Ligand>
28368

> <ChEMBL ID of Ligand>
CHEMBL36506

> <DrugBank ID of Ligand>
DB01051

> <IUPHAR_GRAC ID of Ligand>


> <KEGG ID of Ligand>
C05080

> <ZINC ID of Ligand>
ZINC14879999

> <Number of Protein Chains in Target (>1 implies a multichain complex)>
1

> <BindingDB Target Chain Sequence>
MVTALSDVNNTDNYGAGQIQVLEGLEAVRKRPGMYIGSTSERGLHHLVWEIVDNSIDEALAGYANQIEVVIEKDNWIKVTDNGRGIPVDIQEKMGRPAVEVILTVLHAGGKFGGGGYKVSGGLHGVGSSVVNALSQDLEVYVHRNETIYHQAYKKGVPQFDLKEVGTTDKTGTVIRFKADGEIFTETTVYNYETLQQRIRELAFLNKGIQITLRDERDEENVREDSYHYEGGIKSYVELLNENKEPIHDEPIYIHQSKDDIEVEIAIQYNSGYATNLLTYANNIHTYEGGTHEDGFKRALTRVLNSYGLSSKIMKEEKDRLSGEDTREGMTAIISIKHGDPQFEGQTKTKLGNSEVRQVVDKLFSEHFERFLYENPQVARTVVEKGIMAARARVAAKKAREVTRRKSALDVASLPGKLADCSSKSPEECEIFLVEGDSAGGSTKSGRDSRTQAILPLRGKILNVEKARLDRILNNNEIRQMITAFGTGIGGDFDLAKARYHKIVIMTDADVDGAHIRTLLLTFFYRFMRPLIEAGYVYIAQPPLYKLTQGKQKYYVYNDRELDKLKSELNPTPKWSIARYKGLGEMNADQLWETTMNPEHRALLQVKLEDAIEADQTFEMLMGDVVENRRQFIEDNAVYANLDF

> <PDB ID(s) of Target Chain>


> <UniProt (SwissProt) Recommended Name of Target Chain>
DNA gyrase subunit B

> <UniProt (SwissProt) Entry Name of Target Chain>
GYRB_STAAU

> <UniProt (SwissProt) Primary ID of Target Chain>
P0A0K8

> <UniProt (SwissProt) Secondary ID(s) of Target Chain>
P20832

> <UniProt (SwissProt) Alternative ID(s) of Target Chain>


> <UniProt (TrEMBL) Submitted Name of Target Chain>


> <UniProt (TrEMBL) Entry Name of Target Chain>


> <UniProt (TrEMBL) Primary ID of Target Chain>


> <UniProt (TrEMBL) Secondary ID(s) of Target Chain>


> <UniProt (TrEMBL) Alternative ID(s) of Target Chain>


$$$$

  Mrv0541 11241420052D          

 25 27  0  0  0  0            999 V2000
   20.0817   -8.7332    0.0000 C   0  0  0  0  0  0  0  0  0  0  0  0
   20.0806   -9.5606    0.0000 C   0  0  0  0  0  0  0  0  0  0  0  0
   20.7953   -9.9734    0.0000 N   0  0  0  0  0  0  0  0  0  0  0  0
   20.7935   -8.3205    0.0000 C   0  0  0  0  0  0  0  0  0  0  0  0
   19.3671   -8.3209    0.0000 C   0  0  0  0  0  0  0  0  0  0  0  0
   19.3703   -7.4950    0.0000 C   0  0  0  0  0  0  0  0  0  0  0  0
   18.6567   -7.0827    0.0000 N   0  0  0  0  0  0  0  0  0  0  0  0
   17.9413   -7.4955    0.0000 C   0  0  0  0  0  0  0  0  0  0  0  0
   17.9442   -8.3247    0.0000 C   0  0  0  0  0  0  0  0  0  0  0  0
   18.6584   -8.7332    0.0000 C   0  0  0  0  0  0  0  0  0  0  0  0
   21.5090   -8.7295    0.0000 C   0  0  0  0  0  0  0  0  0  0  0  0
   21.5092   -9.5606    0.0000 C   0  0  0  0  0  0  0  0  0  0  0  0
   22.2996   -9.8172    0.0000 S   0  0  0  0  0  0  0  0  0  0  0  0
   22.7880   -9.1447    0.0000 C   0  0  0  0  0  0  0  0  0  0  0  0
   22.2992   -8.4726    0.0000 N   0  0  0  0  0  0  0  0  0  0  0  0
   23.6130   -9.1444    0.0000 N   0  0  0  0  0  0  0  0  0  0  0  0
   24.0252   -8.4298    0.0000 C   0  0  0  0  0  0  0  0  0  0  0  0
   24.8502   -8.4295    0.0000 O   0  0  0  0  0  0  0  0  0  0  0  0
   23.6125   -7.7154    0.0000 N   0  0  0  0  0  0  0  0  0  0  0  0
   24.0247   -7.0009    0.0000 C   0  0  0  0  0  0  0  0  0  0  0  0
   23.6120   -6.2865    0.0000 C   0  0  0  0  0  0  0  0  0  0  0  0
   19.3657   -9.9725    0.0000 O   0  0  0  0  0  0  0  0  0  0  0  0
   20.7955  -10.7984    0.0000 C   0  0  0  0  0  0  0  0  0  0  0  0
   20.0812  -11.2111    0.0000 C   0  0  0  0  0  0  0  0  0  0  0  0
   21.5102  -11.2107    0.0000 C   0  0  0  0  0  0  0  0  0  0  0  0
  1  2  1  0  0  0  0
  2  3  1  0  0  0  0
  3 12  1  0  0  0  0
 11  4  1  0  0  0  0
  4  1  2  0  0  0  0
  1  5  1  0  0  0  0
  5  6  2  0  0  0  0
  6  7  1  0  0  0  0
  7  8  2  0  0  0  0
  8  9  1  0  0  0  0
  9 10  2  0  0  0  0
 10  5  1  0  0  0  0
 11 12  2  0  0  0  0
 12 13  1  0  0  0  0
 13 14  1  0  0  0  0
 14 15  2  0  0  0  0
 15 11  1  0  0  0  0
 14 16  1  0  0  0  0
 16 17  1  0  0  0  0
 17 18  2  0  0  0  0
 17 19  1  0  0  0  0
 19 20  1  0  0  0  0
 20 21  1  0  0  0  0
  2 22  2  0  0  0  0
  3 23  1  0  0  0  0
 23 24  1  0  0  0  0
 23 25  1  0  0  0  0
M  END
> <From> 
www.bindingDB.org

> <BindingDB Reactant_set_id>
51091630

> <Ligand InChI>
InChI=1S/C17H19N5O2S/c1-4-19-16(24)21-17-20-13-8-12(11-6-5-7-18-9-11)14(23)22(10(2)3)15(13)25-17/h5-10H,4H2,1-3H3,(H2,19,20,21,24)

> <Ligand InChI Key>
LHKCLKRGRJHELV-UHFFFAOYSA-N

> <BindingDB MonomerID>
50447318

> <BindingDB Ligand Name>
CHEMBL3114216

> <Target Name Assigned by Curator or DataSource>
DNA gyrase subunit B

> <Target Source Organism According to Curator or DataSource>


> <Ki (nM)>


> <IC50 (nM)>
 40

> <Kd (nM)>


> <EC50 (nM)>


> <kon (M-1-s-1)>


> <koff (s-1)>


> <pH>


> <Temp C>


> <Curation/DataSource>
ChEMBL

> <Article DOI>
10.1016/j.bmcl.2013.12.080

> <PMID>
24405701

> <PubChem AID>


> <Patent Number>


> <Authors>
Kale, RR; Kale, MG; Waterson, D; Raichurkar, A; Hameed, SP; Manjunatha, MR; Kishore Reddy, BK; Malolanarasimhan, K; Shinde, V; Koushik, K; Jena, LK; Menasinakai, S; Humnabadkar, V; Madhavapeddi, P; Basavarajappa, H; Sharma, S; Nandishaiah, R; Mahesh Kumar, KN; Ganguly, S; Ahuja, V; Gaonkar, S; Naveen Kumar, CN; Ogg, D; Boriack-Sjodin, PA; Sambandamurthy, VK; de Sousa, SM; Ghorpade, SR

> <Institution>
AstraZeneca

> <Link to Ligand in BindingDB>
http://www.bindingdb.org/bind/chemsearch/marvin/MolStructure.jsp?monomerid=50447318

> <Link to Ligand-Target Pair in BindingDB>
http://www.bindingdb.org/jsp/dbsearch/PrimarySearch_ki.jsp?energyterm=kJ/mole&tag=pol&polymerid=50006452&target=DNA+gyrase+subunit+B&column=ki&startPg=0&Increment=50&submit=Search

> <Link to Ligand-Target Pair in BindingDB>
http://www.bindingdb.org/jsp/dbsearch/PrimarySearch_ki.jsp?energyterm=kJ/mole&tag=r21&monomerid=50447318&enzyme=DNA+gyrase+subunit+B&column=ki&startPg=0&Increment=50&submit=Search

> <Ligand HET ID in PDB>


> <PDB ID(s) for Ligand-Target Complex>


> <PubChem CID>
76310500

> <PubChem SID>
194945214

> <ChEBI ID of Ligand>


> <ChEMBL ID of Ligand>
CHEMBL3114216

> <DrugBank ID of Ligand>


> <IUPHAR_GRAC ID of Ligand>


> <KEGG ID of Ligand>


> <ZINC ID of Ligand>


> <Number of Protein Chains in Target (>1 implies a multichain complex)>
1

> <BindingDB Target Chain Sequence>
MAAQKNNAPKEYGADSITILEGLEAVRKRPGMYIGSTGERGLHHLIWEVVDNAVDEAMAGFATRVDVKIHADGSVEVRDDGRGIPVEMHATGMPTIDVVMTQLHAGGKFDGETYAVSGGLHGVGVSVVNALSTRLEATVLRDGYEWFQYYDRSVPGKLKQGGETKETGTTIRFWADPEIFETTDYNFETVARRLQEMAFLNKGLTIELTDERVTAEEVVDDVVKDTAEAPKTADEKAAEATGPSKVKHRVFHYPGGLVDYVKHINRTKTPIQQSIIDFDGKGPGHEVEIAMQWNAGYSESVHTFANTINTHEGGTHEEGFRAALTSVVNRYAKDKKLLKDKDPNLTGDDIREGLAAVISVKVAEPQFEGQTKTKLGNTEVKSFVQKICNEQLQHWFEANPAEAKTVVNKAVSSAQARIAARKARELVRRKSATDIGGLPGKLADCRSTDPSKSELYVVEGDSAGGSAKSGRDSMFQAILPLRGKIINVEKARIDRVLKNTEVQSIITALGTGIHDEFDISKLRYHKIVLMADADVDGQHISTLLLTLLFRFMKPLVENGHIFLAQPPLYKLKWQRSEPEFAYSDRERDGLLEAGRAAGKKINVDDGIQRYKGLGEMDAKELWETTMDPSVRVLRQVTLDDAAAADELFSILMGEDVEARRSFITRNAKDVRFLDV

> <PDB ID(s) of Target Chain>
4BAE

> <UniProt (SwissProt) Recommended Name of Target Chain>
DNA gyrase subunit B

> <UniProt (SwissProt) Entry Name of Target Chain>
GYRB_MYCSM

> <UniProt (SwissProt) Primary ID of Target Chain>
P0C559

> <UniProt (SwissProt) Secondary ID(s) of Target Chain>
P48355,Q59555

> <UniProt (SwissProt) Alternative ID(s) of Target Chain>


> <UniProt (TrEMBL) Submitted Name of Target Chain>


> <UniProt (TrEMBL) Entry Name of Target Chain>


> <UniProt (TrEMBL) Primary ID of Target Chain>


> <UniProt (TrEMBL) Secondary ID(s) of Target Chain>


> <UniProt (TrEMBL) Alternative ID(s) of Target Chain>


$$$$

  Mrv0541 04031611382D          

 32 34  0  0  0  0            999 V2000
    4.9430   -3.9921    0.0000 C   0  0  0  0  0  0  0  0  0  0  0  0
    5.6449   -4.4257    0.0000 N   0  0  0  0  0  0  0  0  0  0  0  0
    6.3714   -4.0346    0.0000 C   0  0  0  0  0  0  0  0  0  0  0  0
    7.0733   -4.4682    0.0000 C   0  0  0  0  0  0  0  0  0  0  0  0
    6.3960   -3.2099    0.0000 O   0  0  0  0  0  0  0  0  0  0  0  0
    7.0442   -5.2926    0.0000 C   0  0  0  0  0  0  0  0  0  0  0  0
    7.7453   -5.7262    0.0000 N   0  0  0  0  0  0  0  0  0  0  0  0
    8.4727   -5.3350    0.0000 C   0  0  0  0  0  0  0  0  0  0  0  0
    8.4947   -4.5060    0.0000 C   0  0  0  0  0  0  0  0  0  0  0  0
    7.7929   -4.0762    0.0000 C   0  0  0  0  0  0  0  0  0  0  0  0
    9.1752   -5.7677    0.0000 N   0  0  0  0  0  0  0  0  0  0  0  0
    9.9012   -5.3756    0.0000 C   0  0  0  0  0  0  0  0  0  0  0  0
   10.6038   -5.8083    0.0000 N   0  0  0  0  0  0  0  0  0  0  0  0
    9.9247   -4.5509    0.0000 O   0  0  0  0  0  0  0  0  0  0  0  0
   11.3297   -5.4162    0.0000 C   0  0  0  0  0  0  0  0  0  0  0  0
   12.0322   -5.8489    0.0000 C   0  0  0  0  0  0  0  0  0  0  0  0
    4.9713   -3.1665    0.0000 C   0  0  0  0  0  0  0  0  0  0  0  0
    4.2702   -2.7330    0.0000 C   0  0  0  0  0  0  0  0  0  0  0  0
    3.5426   -3.1241    0.0000 C   0  0  0  0  0  0  0  0  0  0  0  0
    3.5206   -3.9533    0.0000 N   0  0  0  0  0  0  0  0  0  0  0  0
    4.2224   -4.3830    0.0000 C   0  0  0  0  0  0  0  0  0  0  0  0
    7.8138   -3.2515    0.0000 N   0  0  0  0  0  0  0  0  0  0  0  0
    8.5385   -2.8571    0.0000 C   0  0  0  0  0  0  0  0  0  0  0  0
    9.2394   -3.2894    0.0000 C   0  0  0  0  0  0  0  0  0  0  0  0
    9.9637   -2.8959    0.0000 C   0  0  0  0  0  0  0  0  0  0  0  0
    9.9851   -2.0702    0.0000 C   0  0  0  0  0  0  0  0  0  0  0  0
    9.2762   -1.6397    0.0000 C   0  0  0  0  0  0  0  0  0  0  0  0
    8.5548   -2.0357    0.0000 C   0  0  0  0  0  0  0  0  0  0  0  0
   10.7161   -1.6711    0.0000 O   0  0  0  0  0  0  0  0  0  0  0  0
   10.7358   -0.8463    0.0000 C   0  0  0  0  0  0  0  0  0  0  0  0
    7.8490   -1.6085    0.0000 O   0  0  0  0  0  0  0  0  0  0  0  0
    7.1262   -2.0061    0.0000 C   0  0  0  0  0  0  0  0  0  0  0  0
  1  2  1  0  0  0  0
  2  3  1  0  0  0  0
  3  4  1  0  0  0  0
  3  5  2  0  0  0  0
  4  6  4  0  0  0  0
  6  7  4  0  0  0  0
  7  8  4  0  0  0  0
  8  9  4  0  0  0  0
  9 10  4  0  0  0  0
 10  4  4  0  0  0  0
  8 11  1  0  0  0  0
 11 12  1  0  0  0  0
 12 13  1  0  0  0  0
 12 14  2  0  0  0  0
 13 15  1  0  0  0  0
 15 16  1  0  0  0  0
  1 17  4  0  0  0  0
 17 18  4  0  0  0  0
 18 19  4  0  0  0  0
 19 20  4  0  0  0  0
 20 21  4  0  0  0  0
 21  1  4  0  0  0  0
 10 22  1  0  0  0  0
 22 23  1  0  0  0  0
 23 24  4  0  0  0  0
 24 25  4  0  0  0  0
 25 26  4  0  0  0  0
 26 27  4  0  0  0  0
 27 28  4  0  0  0  0
 28 23  4  0  0  0  0
 26 29  1  0  0  0  0
 29 30  1  0  0  0  0
 28 31  1  0  0  0  0
 31 32  1  0  0  0  0
M  END
> <From> 
www.bindingDB.org

> <BindingDB Reactant_set_id>
50291099

> <Ligand InChI>
InChI=1S/C22H24N6O4/c1-4-24-22(30)28-20-11-18(27-17-8-7-15(31-2)10-19(17)32-3)16(13-25-20)21(29)26-14-6-5-9-23-12-14/h5-13H,4H2,1-3H3,(H,26,29)(H3,24,25,27,28,30)

> <Ligand InChI Key>
NHLOTGIWHZMOCX-UHFFFAOYSA-N

> <BindingDB MonomerID>
50058510

> <BindingDB Ligand Name>
CHEMBL3329319

> <Target Name Assigned by Curator or DataSource>
DNA Gyrase Subunit B

> <Target Source Organism According to Curator or DataSource>
Staphylococcus aureus

> <Ki (nM)>


> <IC50 (nM)>
 41

> <Kd (nM)>


> <EC50 (nM)>


> <kon (M-1-s-1)>


> <koff (s-1)>


> <pH>


> <Temp C>


> <Curation/DataSource>
ChEMBL

> <Article DOI>
10.1016/j.ejmech.2014.08.025

> <PMID>
25137573

> <PubChem AID>


> <Patent Number>


> <Authors>
Yule, IA; Czaplewski, LG; Pommier, S; Davies, DT; Narramore, SK; Fishwick, CW

> <Institution>
University of Leeds

> <Link to Ligand in BindingDB>
http://www.bindingdb.org/bind/chemsearch/marvin/MolStructure.jsp?monomerid=50058510

> <Link to Ligand-Target Pair in BindingDB>
http://www.bindingdb.org/jsp/dbsearch/PrimarySearch_ki.jsp?energyterm=kJ/mole&tag=pol&polymerid=2626&target=DNA+Gyrase+Subunit+B&column=ki&startPg=0&Increment=50&submit=Search

> <Link to Ligand-Target Pair in BindingDB>
http://www.bindingdb.org/jsp/dbsearch/PrimarySearch_ki.jsp?energyterm=kJ/mole&tag=r21&monomerid=50058510&enzyme=DNA+Gyrase+Subunit+B&column=ki&startPg=0&Increment=50&submit=Search

> <Ligand HET ID in PDB>


> <PDB ID(s) for Ligand-Target Complex>


> <PubChem CID>
118712318

> <PubChem SID>
312810990

> <ChEBI ID of Ligand>


> <ChEMBL ID of Ligand>


> <DrugBank ID of Ligand>


> <IUPHAR_GRAC ID of Ligand>


> <KEGG ID of Ligand>


> <ZINC ID of Ligand>


> <Number of Protein Chains in Target (>1 implies a multichain complex)>
1

> <BindingDB Target Chain Sequence>
MVTALSDVNNTDNYGAGQIQVLEGLEAVRKRPGMYIGSTSERGLHHLVWEIVDNSIDEALAGYANQIEVVIEKDNWIKVTDNGRGIPVDIQEKMGRPAVEVILTVLHAGGKFGGGGYKVSGGLHGVGSSVVNALSQDLEVYVHRNETIYHQAYKKGVPQFDLKEVGTTDKTGTVIRFKADGEIFTETTVYNYETLQQRIRELAFLNKGIQITLRDERDEENVREDSYHYEGGIKSYVELLNENKEPIHDEPIYIHQSKDDIEVEIAIQYNSGYATNLLTYANNIHTYEGGTHEDGFKRALTRVLNSYGLSSKIMKEEKDRLSGEDTREGMTAIISIKHGDPQFEGQTKTKLGNSEVRQVVDKLFSEHFERFLYENPQVARTVVEKGIMAARARVAAKKAREVTRRKSALDVASLPGKLADCSSKSPEECEIFLVEGDSAGGSTKSGRDSRTQAILPLRGKILNVEKARLDRILNNNEIRQMITAFGTGIGGDFDLAKARYHKIVIMTDADVDGAHIRTLLLTFFYRFMRPLIEAGYVYIAQPPLYKLTQGKQKYYVYNDRELDKLKSELNPTPKWSIARYKGLGEMNADQLWETTMNPEHRALLQVKLEDAIEADQTFEMLMGDVVENRRQFIEDNAVYANLDF

> <PDB ID(s) of Target Chain>


> <UniProt (SwissProt) Recommended Name of Target Chain>
DNA gyrase subunit B

> <UniProt (SwissProt) Entry Name of Target Chain>
GYRB_STAAU

> <UniProt (SwissProt) Primary ID of Target Chain>
P0A0K8

> <UniProt (SwissProt) Secondary ID(s) of Target Chain>
P20832

> <UniProt (SwissProt) Alternative ID(s) of Target Chain>


> <UniProt (TrEMBL) Submitted Name of Target Chain>


> <UniProt (TrEMBL) Entry Name of Target Chain>


> <UniProt (TrEMBL) Primary ID of Target Chain>


> <UniProt (TrEMBL) Secondary ID(s) of Target Chain>


> <UniProt (TrEMBL) Alternative ID(s) of Target Chain>


$$$$

  Mrv0541 11231413392D          

 50 54  0  0  0  0            999 V2000
   13.6160  -18.9013    0.0000 C   0  0  0  0  0  0  0  0  0  0  0  0
   12.8901  -18.4997    0.0000 C   0  0  1  0  0  0  0  0  0  0  0  0
   12.1834  -18.9252    0.0000 C   0  0  2  0  0  0  0  0  0  0  0  0
   12.1962  -19.7541    0.0000 C   0  0  2  0  0  0  0  0  0  0  0  0
   12.9221  -20.1556    0.0000 C   0  0  1  0  0  0  0  0  0  0  0  0
   13.6351  -19.7284    0.0000 O   0  0  0  0  0  0  0  0  0  0  0  0
   12.9364  -20.9805    0.0000 O   0  0  0  0  0  0  0  0  0  0  0  0
   13.6561  -21.3918    0.0000 C   0  0  0  0  0  0  0  0  0  0  0  0
   13.6555  -22.2163    0.0000 C   0  0  0  0  0  0  0  0  0  0  0  0
   14.3710  -20.9775    0.0000 C   0  0  0  0  0  0  0  0  0  0  0  0
   15.0856  -21.3953    0.0000 C   0  0  0  0  0  0  0  0  0  0  0  0
   15.0837  -22.2200    0.0000 C   0  0  0  0  0  0  0  0  0  0  0  0
   14.3684  -22.6315    0.0000 C   0  0  0  0  0  0  0  0  0  0  0  0
   14.3672  -23.4522    0.0000 O   0  0  0  0  0  0  0  0  0  0  0  0
   15.0795  -23.8675    0.0000 C   0  0  0  0  0  0  0  0  0  0  0  0
   15.7949  -23.4560    0.0000 C   0  0  0  0  0  0  0  0  0  0  0  0
   15.7977  -22.6291    0.0000 C   0  0  0  0  0  0  0  0  0  0  0  0
   16.5123  -22.2167    0.0000 O   0  0  0  0  0  0  0  0  0  0  0  0
   15.0772  -24.6925    0.0000 O   0  0  0  0  0  0  0  0  0  0  0  0
   16.5083  -23.8703    0.0000 N   0  0  0  0  0  0  0  0  0  0  0  0
   16.5062  -24.6953    0.0000 C   0  0  0  0  0  0  0  0  0  0  0  0
   15.7907  -25.1059    0.0000 O   0  0  0  0  0  0  0  0  0  0  0  0
   17.2197  -25.1095    0.0000 C   0  0  0  0  0  0  0  0  0  0  0  0
   17.2148  -25.9337    0.0000 C   0  0  0  0  0  0  0  0  0  0  0  0
   17.9273  -26.3479    0.0000 C   0  0  0  0  0  0  0  0  0  0  0  0
   18.6438  -25.9372    0.0000 C   0  0  0  0  0  0  0  0  0  0  0  0
   18.6432  -25.1079    0.0000 C   0  0  0  0  0  0  0  0  0  0  0  0
   17.9301  -24.6974    0.0000 C   0  0  0  0  0  0  0  0  0  0  0  0
   19.3578  -26.3505    0.0000 O   0  0  0  0  0  0  0  0  0  0  0  0
   14.4435  -18.8823    0.0000 C   0  0  0  0  0  0  0  0  0  0  0  0
   13.6052  -18.0781    0.0000 C   0  0  0  0  0  0  0  0  0  0  0  0
   12.8750  -17.6749    0.0000 O   0  0  0  0  0  0  0  0  0  0  0  0
   13.5818  -17.2493    0.0000 C   0  0  0  0  0  0  0  0  0  0  0  0
   11.4620  -18.5248    0.0000 O   0  0  0  0  0  0  0  0  0  0  0  0
   11.4480  -17.7000    0.0000 C   0  0  0  0  0  0  0  0  0  0  0  0
   10.7270  -17.2993    0.0000 C   0  0  0  0  0  0  0  0  0  0  0  0
   12.1553  -17.2755    0.0000 O   0  0  0  0  0  0  0  0  0  0  0  0
   11.4888  -20.1787    0.0000 O   0  0  0  0  0  0  0  0  0  0  0  0
   10.4911  -16.5058    0.0000 C   0  0  0  0  0  0  0  0  0  0  0  0
    9.6665  -16.4827    0.0000 C   0  0  0  0  0  0  0  0  0  0  0  0
    9.3897  -17.2600    0.0000 C   0  0  0  0  0  0  0  0  0  0  0  0
   10.0433  -17.7632    0.0000 N   0  0  0  0  0  0  0  0  0  0  0  0
    8.6716  -17.6641    0.0000 C   0  0  0  0  0  0  0  0  0  0  0  0
   12.9400  -22.6272    0.0000 Cl  0  0  0  0  0  0  0  0  0  0  0  0
   19.3573  -24.6946    0.0000 N   0  0  0  0  0  0  0  0  0  0  0  0
   20.0722  -25.1065    0.0000 C   0  0  0  0  0  0  0  0  0  0  0  0
   20.7862  -24.6932    0.0000 C   0  0  0  0  0  0  0  0  0  0  0  0
   21.5011  -25.1049    0.0000 C   0  0  0  0  0  0  0  0  0  0  0  0
   20.7853  -23.8682    0.0000 C   0  0  0  0  0  0  0  0  0  0  0  0
   20.0730  -25.9315    0.0000 O   0  0  0  0  0  0  0  0  0  0  0  0
 23 24  2  0  0  0  0
  3  4  1  0  0  0  0
 24 25  1  0  0  0  0
 12 13  1  0  0  0  0
 25 26  2  0  0  0  0
  4  5  1  0  0  0  0
 26 27  1  0  0  0  0
  5  6  1  0  0  0  0
 27 28  2  0  0  0  0
 28 23  1  0  0  0  0
 26 29  1  0  0  0  0
  5  7  1  1  0  0  0
  1 30  1  0  0  0  0
  2  1  1  0  0  0  0
  1 31  1  0  0  0  0
  7  8  1  0  0  0  0
  2 32  1  1  0  0  0
 12 17  1  0  0  0  0
 32 33  1  0  0  0  0
 13 14  1  0  0  0  0
  3 34  1  6  0  0  0
 14 15  1  0  0  0  0
 34 35  1  0  0  0  0
 15 16  1  0  0  0  0
 35 36  1  0  0  0  0
 16 17  2  0  0  0  0
 35 37  2  0  0  0  0
  8  9  1  0  0  0  0
  4 38  1  6  0  0  0
 36 39  2  0  0  0  0
 17 18  1  0  0  0  0
  1  6  1  0  0  0  0
 15 19  2  0  0  0  0
  3  2  1  0  0  0  0
 39 40  1  0  0  0  0
 40 41  2  0  0  0  0
 41 42  1  0  0  0  0
 42 36  1  0  0  0  0
 16 20  1  0  0  0  0
 41 43  1  0  0  0  0
  8 10  2  0  0  0  0
  9 44  1  0  0  0  0
 20 21  1  0  0  0  0
 27 45  1  0  0  0  0
  9 13  2  0  0  0  0
 45 46  1  0  0  0  0
 21 22  2  0  0  0  0
 46 47  1  0  0  0  0
 11 10  1  0  0  0  0
 47 48  1  0  0  0  0
 21 23  1  0  0  0  0
 47 49  1  0  0  0  0
 11 12  2  0  0  0  0
 46 50  2  0  0  0  0
M  END
> <From> 
www.bindingDB.org

> <BindingDB Reactant_set_id>
50607708

> <Ligand InChI>
InChI=1S/C34H36ClN3O12/c1-14(2)29(42)37-19-13-16(8-11-20(19)39)30(43)38-23-24(40)17-9-12-21(22(35)26(17)48-32(23)45)47-33-25(41)27(28(46-6)34(4,5)50-33)49-31(44)18-10-7-15(3)36-18/h7-14,25,27-28,33,36,39-41H,1-6H3,(H,37,42)(H,38,43)/t25-,27+,28-,33-/m1/s1

> <Ligand InChI Key>
FNPPUNGVMKGUFY-OJGAGICASA-N

> <BindingDB MonomerID>
50330316

> <BindingDB Ligand Name>
(3R,4S,5R,6S)-6-(8-chloro-4-hydroxy-3-(4-hydroxy-3-isobutyramidobenzamido)-2-oxo-2H-chromen-7-yloxy)-5-hydroxy-3-methoxy-2,2-dimethyltetrahydro-2H-pyran-4-yl 5-methyl-1H-pyrrole-2-carboxylate::CHEMBL1275842

> <Target Name Assigned by Curator or DataSource>
DNA Gyrase Subunit B

> <Target Source Organism According to Curator or DataSource>
Escherichia coli

> <Ki (nM)>


> <IC50 (nM)>
 41

> <Kd (nM)>


> <EC50 (nM)>


> <kon (M-1-s-1)>


> <koff (s-1)>


> <pH>


> <Temp C>


> <Curation/DataSource>
ChEMBL

> <Article DOI>
10.1128/AAC.01235-07

> <PMID>
18347114

> <PubChem AID>


> <Patent Number>


> <Authors>
Anderle, C; Stieger, M; Burrell, M; Reinelt, S; Maxwell, A; Page, M; Heide, L

> <Institution>
Universit&#228;t T&#252;bingen

> <Link to Ligand in BindingDB>
http://www.bindingdb.org/bind/chemsearch/marvin/MolStructure.jsp?monomerid=50330316

> <Link to Ligand-Target Pair in BindingDB>
http://www.bindingdb.org/jsp/dbsearch/PrimarySearch_ki.jsp?energyterm=kJ/mole&tag=pol&polymerid=2630&target=DNA+Gyrase+Subunit+B&column=ki&startPg=0&Increment=50&submit=Search

> <Link to Ligand-Target Pair in BindingDB>
http://www.bindingdb.org/jsp/dbsearch/PrimarySearch_ki.jsp?energyterm=kJ/mole&tag=r21&monomerid=50330316&enzyme=DNA+Gyrase+Subunit+B&column=ki&startPg=0&Increment=50&submit=Search

> <Ligand HET ID in PDB>


> <PDB ID(s) for Ligand-Target Complex>


> <PubChem CID>
54730379

> <PubChem SID>
123109431

> <ChEBI ID of Ligand>


> <ChEMBL ID of Ligand>
CHEMBL1275842

> <DrugBank ID of Ligand>


> <IUPHAR_GRAC ID of Ligand>


> <KEGG ID of Ligand>


> <ZINC ID of Ligand>
ZINC72136376

> <Number of Protein Chains in Target (>1 implies a multichain complex)>
1

> <BindingDB Target Chain Sequence>
MSNSYDSSSIKVLKGLDAVRKRPGMYIGDTDDGTGLHHMVFEVVDNAIDEALAGHCKEII
VTIHADNSVSVQDDGRGIPTGIHPEEGVSAAEVIMTVLHAGGKFDDNSYKVSGGLHGVGV
SVVNALSQKLELVIQREGKIHRQIYEHGVPQAPLAVTGETEKTGTMVRFWPSLETFTNVT
EFEYEILAKRLRELSFLNSGVSIRLRDKRDGKEDHFHYEGGIKAFVEYLNKNKTPIHPNI
FYFSTEKDGIGVEVALQWNDGFQENIYCFTNNIPQRDGGTHLAGFRAAMTRTLNAYMDKE
GYSKKAKVSATGDDAREGLIAVVSVKVPDPKFSSQTKDKLVSSEVKSAVEQQMNELLAEY
LLENPTDAKIVVGKIIDAARAREAARRAREMTRRKGALDLAGLPGKLADCQERDPALSEL
YLVEGDSAGGSAKQGRNRKNQAILPLKGKILNVEKARFDKMLSSQEVATLITALGCGIGR
DEYNPDKLRYHSIIIMTDADVDGSHIRTLLLTFFYRQMPEIVERGHVYIAQPPLYKVKKG
KQEQYIKDDEAMDQYQISIALDGATLHTNASAPALAGEALEKLVSEYNATQKMINRMERR
YPKAMLKELIYQPTLTEADLSDEQTVTRWVNALVSELNDKEQHGSQWKFDVHTNAEQNLF
EPIVRVRTHGVDTDYPLDHEFITGGEYRRICTLGEKLRGLLEEDAFIERGERRQPVASFE
QALDWLVKESRRGLSIQRYKGLGEMNPEQLWETTMDPESRRMLRVTVKDAIAADQLFTTL
MGDAVEPRRAFIEENALKAANIDI

> <PDB ID(s) of Target Chain>
1KZN,3G7E,3NUH,4DUH,4HYP,4KFG,4PRV,4PRX,4PU9,4WUB,4WUC,4WUD,4XTJ,4ZVI,5L3J,5MMN,5MMO,5MMP,5Z4H,5Z4O,5Z9B,5Z9E,5Z9F,5Z9L,5Z9M,5Z9N,5Z9Q,6ENG,6F86,6F8J,6F94,6F96

> <UniProt (SwissProt) Recommended Name of Target Chain>
DNA gyrase subunit B

> <UniProt (SwissProt) Entry Name of Target Chain>
GYRB_ECOLI

> <UniProt (SwissProt) Primary ID of Target Chain>
P0AES6

> <UniProt (SwissProt) Secondary ID(s) of Target Chain>
O08438,P06982,Q2M811

> <UniProt (SwissProt) Alternative ID(s) of Target Chain>


> <UniProt (TrEMBL) Submitted Name of Target Chain>


> <UniProt (TrEMBL) Entry Name of Target Chain>


> <UniProt (TrEMBL) Primary ID of Target Chain>


> <UniProt (TrEMBL) Secondary ID(s) of Target Chain>


> <UniProt (TrEMBL) Alternative ID(s) of Target Chain>


$$$$

  Mrv0541 11231413392D          

 48 52  0  0  0  0            999 V2000
   13.7901    1.0499    0.0000 C   0  0  0  0  0  0  0  0  0  0  0  0
   13.0641    1.4515    0.0000 C   0  0  1  0  0  0  0  0  0  0  0  0
   12.3574    1.0260    0.0000 C   0  0  2  0  0  0  0  0  0  0  0  0
   12.3703    0.1971    0.0000 C   0  0  2  0  0  0  0  0  0  0  0  0
   13.0963   -0.2044    0.0000 C   0  0  1  0  0  0  0  0  0  0  0  0
   13.8093    0.2229    0.0000 O   0  0  0  0  0  0  0  0  0  0  0  0
   13.1106   -1.0293    0.0000 O   0  0  0  0  0  0  0  0  0  0  0  0
   13.8303   -1.4405    0.0000 C   0  0  0  0  0  0  0  0  0  0  0  0
   13.8295   -2.2651    0.0000 C   0  0  0  0  0  0  0  0  0  0  0  0
   14.5452   -1.0263    0.0000 C   0  0  0  0  0  0  0  0  0  0  0  0
   15.2596   -1.4441    0.0000 C   0  0  0  0  0  0  0  0  0  0  0  0
   15.2578   -2.2687    0.0000 C   0  0  0  0  0  0  0  0  0  0  0  0
   14.5425   -2.6802    0.0000 C   0  0  0  0  0  0  0  0  0  0  0  0
   14.5413   -3.5009    0.0000 O   0  0  0  0  0  0  0  0  0  0  0  0
   15.2537   -3.9163    0.0000 C   0  0  0  0  0  0  0  0  0  0  0  0
   15.9689   -3.5048    0.0000 C   0  0  0  0  0  0  0  0  0  0  0  0
   15.9719   -2.6778    0.0000 C   0  0  0  0  0  0  0  0  0  0  0  0
   16.6863   -2.2654    0.0000 O   0  0  0  0  0  0  0  0  0  0  0  0
   15.2513   -4.7413    0.0000 O   0  0  0  0  0  0  0  0  0  0  0  0
   16.6823   -3.9190    0.0000 N   0  0  0  0  0  0  0  0  0  0  0  0
   16.6803   -4.7440    0.0000 C   0  0  0  0  0  0  0  0  0  0  0  0
   15.9648   -5.1547    0.0000 O   0  0  0  0  0  0  0  0  0  0  0  0
   14.6177    1.0689    0.0000 C   0  0  0  0  0  0  0  0  0  0  0  0
   13.7793    1.8731    0.0000 C   0  0  0  0  0  0  0  0  0  0  0  0
   13.0491    2.2763    0.0000 O   0  0  0  0  0  0  0  0  0  0  0  0
   13.7558    2.7019    0.0000 C   0  0  0  0  0  0  0  0  0  0  0  0
   11.6360    1.4264    0.0000 O   0  0  0  0  0  0  0  0  0  0  0  0
   11.6221    2.2512    0.0000 C   0  0  0  0  0  0  0  0  0  0  0  0
   10.9010    2.6519    0.0000 C   0  0  0  0  0  0  0  0  0  0  0  0
   12.3295    2.6757    0.0000 O   0  0  0  0  0  0  0  0  0  0  0  0
   11.6630   -0.2275    0.0000 O   0  0  0  0  0  0  0  0  0  0  0  0
   10.6652    3.4454    0.0000 C   0  0  0  0  0  0  0  0  0  0  0  0
    9.8405    3.4685    0.0000 C   0  0  0  0  0  0  0  0  0  0  0  0
    9.5638    2.6912    0.0000 C   0  0  0  0  0  0  0  0  0  0  0  0
   10.2174    2.1880    0.0000 N   0  0  0  0  0  0  0  0  0  0  0  0
    8.8458    2.2871    0.0000 C   0  0  0  0  0  0  0  0  0  0  0  0
   13.1142   -2.6759    0.0000 Cl  0  0  0  0  0  0  0  0  0  0  0  0
   17.3937   -5.1583    0.0000 C   0  0  0  0  0  0  0  0  0  0  0  0
   17.3916   -5.9833    0.0000 C   0  0  0  0  0  0  0  0  0  0  0  0
   18.1051   -6.3975    0.0000 C   0  0  0  0  0  0  0  0  0  0  0  0
   18.0992   -7.2201    0.0000 C   0  0  0  0  0  0  0  0  0  0  0  0
   18.8118   -7.6343    0.0000 C   0  0  0  0  0  0  0  0  0  0  0  0
   19.5284   -7.2235    0.0000 C   0  0  0  0  0  0  0  0  0  0  0  0
   19.5278   -6.3942    0.0000 C   0  0  0  0  0  0  0  0  0  0  0  0
   18.8146   -5.9838    0.0000 C   0  0  0  0  0  0  0  0  0  0  0  0
   20.2418   -5.9811    0.0000 O   0  0  0  0  0  0  0  0  0  0  0  0
   20.9567   -6.3928    0.0000 C   0  0  0  0  0  0  0  0  0  0  0  0
   20.2424   -7.6369    0.0000 O   0  0  0  0  0  0  0  0  0  0  0  0
  1 23  1  0  0  0  0
 11 12  2  0  0  0  0
  1 24  1  0  0  0  0
  3  4  1  0  0  0  0
  2 25  1  1  0  0  0
 12 13  1  0  0  0  0
 25 26  1  0  0  0  0
  4  5  1  0  0  0  0
  3 27  1  6  0  0  0
  5  6  1  0  0  0  0
 27 28  1  0  0  0  0
 28 29  1  0  0  0  0
  5  7  1  1  0  0  0
 28 30  2  0  0  0  0
  2  1  1  0  0  0  0
  4 31  1  6  0  0  0
 29 32  2  0  0  0  0
  7  8  1  0  0  0  0
 12 17  1  0  0  0  0
 13 14  1  0  0  0  0
 14 15  1  0  0  0  0
 32 33  1  0  0  0  0
 33 34  2  0  0  0  0
 34 35  1  0  0  0  0
 35 29  1  0  0  0  0
 15 16  1  0  0  0  0
 34 36  1  0  0  0  0
 16 17  2  0  0  0  0
  9 37  1  0  0  0  0
  8  9  1  0  0  0  0
 21 38  1  0  0  0  0
 17 18  1  0  0  0  0
 38 39  2  0  0  0  0
  1  6  1  0  0  0  0
 39 40  1  0  0  0  0
 15 19  2  0  0  0  0
 40 41  2  0  0  0  0
  3  2  1  0  0  0  0
 41 42  1  0  0  0  0
 16 20  1  0  0  0  0
 42 43  2  0  0  0  0
  8 10  2  0  0  0  0
 43 44  1  0  0  0  0
 20 21  1  0  0  0  0
 44 45  2  0  0  0  0
 45 40  1  0  0  0  0
  9 13  2  0  0  0  0
 44 46  1  0  0  0  0
 21 22  2  0  0  0  0
 46 47  1  0  0  0  0
 11 10  1  0  0  0  0
 43 48  1  0  0  0  0
M  END
> <From> 
www.bindingDB.org

> <BindingDB Reactant_set_id>
50607695

> <Ligand InChI>
InChI=1S/C33H33ClN2O12/c1-15-6-10-18(35-15)30(41)47-28-26(40)32(48-33(2,3)29(28)44-5)45-20-12-9-17-25(39)24(31(42)46-27(17)23(20)34)36-22(38)13-8-16-7-11-19(37)21(14-16)43-4/h6-14,26,28-29,32,35,37,39-40H,1-5H3,(H,36,38)/b13-8+/t26-,28+,29-,32-/m1/s1

> <Ligand InChI Key>
NTHCLQNRAKGDET-NQRCANERSA-N

> <BindingDB MonomerID>
50330302

> <BindingDB Ligand Name>
(3R,4S,5R,6S)-6-(8-chloro-4-hydroxy-3-((E)-3-(4-hydroxy-3-methoxyphenyl)acrylamido)-2-oxo-2H-chromen-7-yloxy)-5-hydroxy-3-methoxy-2,2-dimethyltetrahydro-2H-pyran-4-yl 5-methyl-1H-pyrrole-2-carboxylate::CHEMBL1275891

> <Target Name Assigned by Curator or DataSource>
DNA Gyrase Subunit B

> <Target Source Organism According to Curator or DataSource>
Escherichia coli

> <Ki (nM)>


> <IC50 (nM)>
 43

> <Kd (nM)>


> <EC50 (nM)>


> <kon (M-1-s-1)>


> <koff (s-1)>


> <pH>


> <Temp C>


> <Curation/DataSource>
ChEMBL

> <Article DOI>
10.1128/AAC.01235-07

> <PMID>
18347114

> <PubChem AID>


> <Patent Number>


> <Authors>
Anderle, C; Stieger, M; Burrell, M; Reinelt, S; Maxwell, A; Page, M; Heide, L

> <Institution>
Universit&#228;t T&#252;bingen

> <Link to Ligand in BindingDB>
http://www.bindingdb.org/bind/chemsearch/marvin/MolStructure.jsp?monomerid=50330302

> <Link to Ligand-Target Pair in BindingDB>
http://www.bindingdb.org/jsp/dbsearch/PrimarySearch_ki.jsp?energyterm=kJ/mole&tag=pol&polymerid=2630&target=DNA+Gyrase+Subunit+B&column=ki&startPg=0&Increment=50&submit=Search

> <Link to Ligand-Target Pair in BindingDB>
http://www.bindingdb.org/jsp/dbsearch/PrimarySearch_ki.jsp?energyterm=kJ/mole&tag=r21&monomerid=50330302&enzyme=DNA+Gyrase+Subunit+B&column=ki&startPg=0&Increment=50&submit=Search

> <Ligand HET ID in PDB>


> <PDB ID(s) for Ligand-Target Complex>


> <PubChem CID>
54695811

> <PubChem SID>
123109417

> <ChEBI ID of Ligand>


> <ChEMBL ID of Ligand>
CHEMBL1275891

> <DrugBank ID of Ligand>


> <IUPHAR_GRAC ID of Ligand>


> <KEGG ID of Ligand>


> <ZINC ID of Ligand>
ZINC72138026

> <Number of Protein Chains in Target (>1 implies a multichain complex)>
1

> <BindingDB Target Chain Sequence>
MSNSYDSSSIKVLKGLDAVRKRPGMYIGDTDDGTGLHHMVFEVVDNAIDEALAGHCKEII
VTIHADNSVSVQDDGRGIPTGIHPEEGVSAAEVIMTVLHAGGKFDDNSYKVSGGLHGVGV
SVVNALSQKLELVIQREGKIHRQIYEHGVPQAPLAVTGETEKTGTMVRFWPSLETFTNVT
EFEYEILAKRLRELSFLNSGVSIRLRDKRDGKEDHFHYEGGIKAFVEYLNKNKTPIHPNI
FYFSTEKDGIGVEVALQWNDGFQENIYCFTNNIPQRDGGTHLAGFRAAMTRTLNAYMDKE
GYSKKAKVSATGDDAREGLIAVVSVKVPDPKFSSQTKDKLVSSEVKSAVEQQMNELLAEY
LLENPTDAKIVVGKIIDAARAREAARRAREMTRRKGALDLAGLPGKLADCQERDPALSEL
YLVEGDSAGGSAKQGRNRKNQAILPLKGKILNVEKARFDKMLSSQEVATLITALGCGIGR
DEYNPDKLRYHSIIIMTDADVDGSHIRTLLLTFFYRQMPEIVERGHVYIAQPPLYKVKKG
KQEQYIKDDEAMDQYQISIALDGATLHTNASAPALAGEALEKLVSEYNATQKMINRMERR
YPKAMLKELIYQPTLTEADLSDEQTVTRWVNALVSELNDKEQHGSQWKFDVHTNAEQNLF
EPIVRVRTHGVDTDYPLDHEFITGGEYRRICTLGEKLRGLLEEDAFIERGERRQPVASFE
QALDWLVKESRRGLSIQRYKGLGEMNPEQLWETTMDPESRRMLRVTVKDAIAADQLFTTL
MGDAVEPRRAFIEENALKAANIDI

> <PDB ID(s) of Target Chain>
1KZN,3G7E,3NUH,4DUH,4HYP,4KFG,4PRV,4PRX,4PU9,4WUB,4WUC,4WUD,4XTJ,4ZVI,5L3J,5MMN,5MMO,5MMP,5Z4H,5Z4O,5Z9B,5Z9E,5Z9F,5Z9L,5Z9M,5Z9N,5Z9Q,6ENG,6F86,6F8J,6F94,6F96

> <UniProt (SwissProt) Recommended Name of Target Chain>
DNA gyrase subunit B

> <UniProt (SwissProt) Entry Name of Target Chain>
GYRB_ECOLI

> <UniProt (SwissProt) Primary ID of Target Chain>
P0AES6

> <UniProt (SwissProt) Secondary ID(s) of Target Chain>
O08438,P06982,Q2M811

> <UniProt (SwissProt) Alternative ID(s) of Target Chain>


> <UniProt (TrEMBL) Submitted Name of Target Chain>


> <UniProt (TrEMBL) Entry Name of Target Chain>


> <UniProt (TrEMBL) Primary ID of Target Chain>


> <UniProt (TrEMBL) Secondary ID(s) of Target Chain>


> <UniProt (TrEMBL) Alternative ID(s) of Target Chain>


$$$$

  Mrv0541 11231413392D          

 45 49  0  0  0  0            999 V2000
   10.4167  -20.7022    0.0000 C   0  0  0  0  0  0  0  0  0  0  0  0
    9.6909  -20.3006    0.0000 C   0  0  1  0  0  0  0  0  0  0  0  0
    8.9840  -20.7262    0.0000 C   0  0  2  0  0  0  0  0  0  0  0  0
    8.9970  -21.5551    0.0000 C   0  0  2  0  0  0  0  0  0  0  0  0
    9.7229  -21.9566    0.0000 C   0  0  1  0  0  0  0  0  0  0  0  0
   10.4359  -21.5293    0.0000 O   0  0  0  0  0  0  0  0  0  0  0  0
    9.7372  -22.7814    0.0000 O   0  0  0  0  0  0  0  0  0  0  0  0
   10.4569  -23.1927    0.0000 C   0  0  0  0  0  0  0  0  0  0  0  0
   10.4562  -24.0173    0.0000 C   0  0  0  0  0  0  0  0  0  0  0  0
   11.1718  -22.7785    0.0000 C   0  0  0  0  0  0  0  0  0  0  0  0
   11.8862  -23.1962    0.0000 C   0  0  0  0  0  0  0  0  0  0  0  0
   11.8844  -24.0209    0.0000 C   0  0  0  0  0  0  0  0  0  0  0  0
   11.1691  -24.4324    0.0000 C   0  0  0  0  0  0  0  0  0  0  0  0
   11.1679  -25.2531    0.0000 O   0  0  0  0  0  0  0  0  0  0  0  0
   11.8803  -25.6685    0.0000 C   0  0  0  0  0  0  0  0  0  0  0  0
   12.5956  -25.2570    0.0000 C   0  0  0  0  0  0  0  0  0  0  0  0
   12.5984  -24.4300    0.0000 C   0  0  0  0  0  0  0  0  0  0  0  0
   13.3130  -24.0176    0.0000 O   0  0  0  0  0  0  0  0  0  0  0  0
   11.8780  -26.4934    0.0000 O   0  0  0  0  0  0  0  0  0  0  0  0
   13.3089  -25.6712    0.0000 N   0  0  0  0  0  0  0  0  0  0  0  0
   13.3069  -26.4962    0.0000 C   0  0  0  0  0  0  0  0  0  0  0  0
   12.5914  -26.9068    0.0000 O   0  0  0  0  0  0  0  0  0  0  0  0
   14.0203  -26.9104    0.0000 C   0  0  0  0  0  0  0  0  0  0  0  0
   14.0153  -27.7346    0.0000 C   0  0  0  0  0  0  0  0  0  0  0  0
   14.7280  -28.1488    0.0000 C   0  0  0  0  0  0  0  0  0  0  0  0
   15.4444  -27.7381    0.0000 C   0  0  0  0  0  0  0  0  0  0  0  0
   15.4439  -26.9088    0.0000 C   0  0  0  0  0  0  0  0  0  0  0  0
   14.7307  -26.4983    0.0000 C   0  0  0  0  0  0  0  0  0  0  0  0
   11.2443  -20.6833    0.0000 C   0  0  0  0  0  0  0  0  0  0  0  0
   10.4058  -19.8791    0.0000 C   0  0  0  0  0  0  0  0  0  0  0  0
    9.6757  -19.4759    0.0000 O   0  0  0  0  0  0  0  0  0  0  0  0
   10.3825  -19.0503    0.0000 C   0  0  0  0  0  0  0  0  0  0  0  0
    8.2627  -20.3258    0.0000 O   0  0  0  0  0  0  0  0  0  0  0  0
    8.2487  -19.5010    0.0000 C   0  0  0  0  0  0  0  0  0  0  0  0
    7.5277  -19.1003    0.0000 C   0  0  0  0  0  0  0  0  0  0  0  0
    8.9561  -19.0765    0.0000 O   0  0  0  0  0  0  0  0  0  0  0  0
    8.2896  -21.9797    0.0000 O   0  0  0  0  0  0  0  0  0  0  0  0
    7.2919  -18.3068    0.0000 C   0  0  0  0  0  0  0  0  0  0  0  0
    6.4672  -18.2837    0.0000 C   0  0  0  0  0  0  0  0  0  0  0  0
    6.1904  -19.0610    0.0000 C   0  0  0  0  0  0  0  0  0  0  0  0
    6.8441  -19.5642    0.0000 N   0  0  0  0  0  0  0  0  0  0  0  0
    5.4724  -19.4651    0.0000 C   0  0  0  0  0  0  0  0  0  0  0  0
    9.7408  -24.4281    0.0000 C   0  0  0  0  0  0  0  0  0  0  0  0
   16.1579  -26.4955    0.0000 C   0  0  0  0  0  0  0  0  0  0  0  0
   16.1584  -28.1513    0.0000 N   0  0  0  0  0  0  0  0  0  0  0  0
  9 13  2  0  0  0  0
 21 22  2  0  0  0  0
 11 10  1  0  0  0  0
 21 23  1  0  0  0  0
 11 12  2  0  0  0  0
 23 24  2  0  0  0  0
  3  4  1  0  0  0  0
 24 25  1  0  0  0  0
 12 13  1  0  0  0  0
 25 26  2  0  0  0  0
  4  5  1  0  0  0  0
 26 27  1  0  0  0  0
  5  6  1  0  0  0  0
 27 28  2  0  0  0  0
 28 23  1  0  0  0  0
  1 29  1  0  0  0  0
  5  7  1  1  0  0  0
  1 30  1  0  0  0  0
  2  1  1  0  0  0  0
  2 31  1  1  0  0  0
  7  8  1  0  0  0  0
 31 32  1  0  0  0  0
 12 17  1  0  0  0  0
  3 33  1  6  0  0  0
 13 14  1  0  0  0  0
 33 34  1  0  0  0  0
 14 15  1  0  0  0  0
 34 35  1  0  0  0  0
 15 16  1  0  0  0  0
 34 36  2  0  0  0  0
 16 17  2  0  0  0  0
  4 37  1  6  0  0  0
 35 38  2  0  0  0  0
  8  9  1  0  0  0  0
 17 18  1  0  0  0  0
  1  6  1  0  0  0  0
 15 19  2  0  0  0  0
 38 39  1  0  0  0  0
 39 40  2  0  0  0  0
 40 41  1  0  0  0  0
 41 35  1  0  0  0  0
  3  2  1  0  0  0  0
 40 42  1  0  0  0  0
 16 20  1  0  0  0  0
  9 43  1  0  0  0  0
  8 10  2  0  0  0  0
 27 44  1  0  0  0  0
 20 21  1  0  0  0  0
 26 45  1  0  0  0  0
M  END
> <From> 
www.bindingDB.org

> <BindingDB Reactant_set_id>
50607700

> <Ligand InChI>
InChI=1S/C32H35N3O10/c1-14-13-17(8-10-19(14)33)28(38)35-22-23(36)18-9-12-21(16(3)25(18)43-30(22)40)42-31-24(37)26(27(41-6)32(4,5)45-31)44-29(39)20-11-7-15(2)34-20/h7-13,24,26-27,31,34,36-37H,33H2,1-6H3,(H,35,38)/t24-,26+,27-,31-/m1/s1

> <Ligand InChI Key>
AVLLVHYTYQSKBF-PPOHMGSZSA-N

> <BindingDB MonomerID>
50330306

> <BindingDB Ligand Name>
(3R,4S,5R,6R)-6-(3-(4-amino-3-methylbenzamido)-4-hydroxy-8-methyl-2-oxo-2H-chromen-7-yloxy)-5-hydroxy-3-methoxy-2,2-dimethyltetrahydro-2H-pyran-4-yl 5-methyl-1H-pyrrole-2-carboxylate::CHEMBL1275887

> <Target Name Assigned by Curator or DataSource>
DNA Gyrase Subunit B

> <Target Source Organism According to Curator or DataSource>
Escherichia coli

> <Ki (nM)>


> <IC50 (nM)>
 44

> <Kd (nM)>


> <EC50 (nM)>


> <kon (M-1-s-1)>


> <koff (s-1)>


> <pH>


> <Temp C>


> <Curation/DataSource>
ChEMBL

> <Article DOI>
10.1128/AAC.01235-07

> <PMID>
18347114

> <PubChem AID>


> <Patent Number>


> <Authors>
Anderle, C; Stieger, M; Burrell, M; Reinelt, S; Maxwell, A; Page, M; Heide, L

> <Institution>
Universit&#228;t T&#252;bingen

> <Link to Ligand in BindingDB>
http://www.bindingdb.org/bind/chemsearch/marvin/MolStructure.jsp?monomerid=50330306

> <Link to Ligand-Target Pair in BindingDB>
http://www.bindingdb.org/jsp/dbsearch/PrimarySearch_ki.jsp?energyterm=kJ/mole&tag=pol&polymerid=2630&target=DNA+Gyrase+Subunit+B&column=ki&startPg=0&Increment=50&submit=Search

> <Link to Ligand-Target Pair in BindingDB>
http://www.bindingdb.org/jsp/dbsearch/PrimarySearch_ki.jsp?energyterm=kJ/mole&tag=r21&monomerid=50330306&enzyme=DNA+Gyrase+Subunit+B&column=ki&startPg=0&Increment=50&submit=Search

> <Ligand HET ID in PDB>


> <PDB ID(s) for Ligand-Target Complex>


> <PubChem CID>
54732402

> <PubChem SID>
123109421

> <ChEBI ID of Ligand>


> <ChEMBL ID of Ligand>
CHEMBL1275887

> <DrugBank ID of Ligand>


> <IUPHAR_GRAC ID of Ligand>


> <KEGG ID of Ligand>


> <ZINC ID of Ligand>
ZINC64447243

> <Number of Protein Chains in Target (>1 implies a multichain complex)>
1

> <BindingDB Target Chain Sequence>
MSNSYDSSSIKVLKGLDAVRKRPGMYIGDTDDGTGLHHMVFEVVDNAIDEALAGHCKEII
VTIHADNSVSVQDDGRGIPTGIHPEEGVSAAEVIMTVLHAGGKFDDNSYKVSGGLHGVGV
SVVNALSQKLELVIQREGKIHRQIYEHGVPQAPLAVTGETEKTGTMVRFWPSLETFTNVT
EFEYEILAKRLRELSFLNSGVSIRLRDKRDGKEDHFHYEGGIKAFVEYLNKNKTPIHPNI
FYFSTEKDGIGVEVALQWNDGFQENIYCFTNNIPQRDGGTHLAGFRAAMTRTLNAYMDKE
GYSKKAKVSATGDDAREGLIAVVSVKVPDPKFSSQTKDKLVSSEVKSAVEQQMNELLAEY
LLENPTDAKIVVGKIIDAARAREAARRAREMTRRKGALDLAGLPGKLADCQERDPALSEL
YLVEGDSAGGSAKQGRNRKNQAILPLKGKILNVEKARFDKMLSSQEVATLITALGCGIGR
DEYNPDKLRYHSIIIMTDADVDGSHIRTLLLTFFYRQMPEIVERGHVYIAQPPLYKVKKG
KQEQYIKDDEAMDQYQISIALDGATLHTNASAPALAGEALEKLVSEYNATQKMINRMERR
YPKAMLKELIYQPTLTEADLSDEQTVTRWVNALVSELNDKEQHGSQWKFDVHTNAEQNLF
EPIVRVRTHGVDTDYPLDHEFITGGEYRRICTLGEKLRGLLEEDAFIERGERRQPVASFE
QALDWLVKESRRGLSIQRYKGLGEMNPEQLWETTMDPESRRMLRVTVKDAIAADQLFTTL
MGDAVEPRRAFIEENALKAANIDI

> <PDB ID(s) of Target Chain>
1KZN,3G7E,3NUH,4DUH,4HYP,4KFG,4PRV,4PRX,4PU9,4WUB,4WUC,4WUD,4XTJ,4ZVI,5L3J,5MMN,5MMO,5MMP,5Z4H,5Z4O,5Z9B,5Z9E,5Z9F,5Z9L,5Z9M,5Z9N,5Z9Q,6ENG,6F86,6F8J,6F94,6F96

> <UniProt (SwissProt) Recommended Name of Target Chain>
DNA gyrase subunit B

> <UniProt (SwissProt) Entry Name of Target Chain>
GYRB_ECOLI

> <UniProt (SwissProt) Primary ID of Target Chain>
P0AES6

> <UniProt (SwissProt) Secondary ID(s) of Target Chain>
O08438,P06982,Q2M811

> <UniProt (SwissProt) Alternative ID(s) of Target Chain>


> <UniProt (TrEMBL) Submitted Name of Target Chain>


> <UniProt (TrEMBL) Entry Name of Target Chain>


> <UniProt (TrEMBL) Primary ID of Target Chain>


> <UniProt (TrEMBL) Secondary ID(s) of Target Chain>


> <UniProt (TrEMBL) Alternative ID(s) of Target Chain>


$$$$

  Mrv0541 11241408262D          

 28 31  0  0  0  0            999 V2000
    9.6861   -6.7500    0.0000 C   0  0  0  0  0  0  0  0  0  0  0  0
    9.6849   -7.5773    0.0000 C   0  0  0  0  0  0  0  0  0  0  0  0
   10.3997   -7.9902    0.0000 C   0  0  0  0  0  0  0  0  0  0  0  0
   10.3979   -6.3372    0.0000 C   0  0  0  0  0  0  0  0  0  0  0  0
   11.9046   -6.4923    0.0000 N   0  0  0  0  0  0  0  0  0  0  0  0
   11.1133   -6.7463    0.0000 C   0  0  0  0  0  0  0  0  0  0  0  0
   11.1115   -7.5781    0.0000 N   0  0  0  0  0  0  0  0  0  0  0  0
   11.9026   -7.8355    0.0000 C   0  0  0  0  0  0  0  0  0  0  0  0
   12.3907   -7.1619    0.0000 C   0  0  0  0  0  0  0  0  0  0  0  0
    8.9736   -6.3378    0.0000 C   0  0  0  0  0  0  0  0  0  0  0  0
    8.9747   -5.5117    0.0000 C   0  0  0  0  0  0  0  0  0  0  0  0
    8.2610   -5.0994    0.0000 N   0  0  0  0  0  0  0  0  0  0  0  0
    7.5457   -5.5122    0.0000 C   0  0  0  0  0  0  0  0  0  0  0  0
    7.5485   -6.3414    0.0000 C   0  0  0  0  0  0  0  0  0  0  0  0
    8.2628   -6.7499    0.0000 C   0  0  0  0  0  0  0  0  0  0  0  0
   10.4017   -8.8124    0.0000 C   0  0  0  0  0  0  0  0  0  0  0  0
    9.6859   -9.2247    0.0000 N   0  0  0  0  0  0  0  0  0  0  0  0
    9.6860  -10.0490    0.0000 C   0  0  0  0  0  0  0  0  0  0  0  0
   10.4012  -10.4619    0.0000 C   0  0  0  0  0  0  0  0  0  0  0  0
   11.1178  -10.0446    0.0000 C   0  0  0  0  0  0  0  0  0  0  0  0
   11.1142   -9.2217    0.0000 N   0  0  0  0  0  0  0  0  0  0  0  0
   13.2157   -7.1616    0.0000 N   0  0  0  0  0  0  0  0  0  0  0  0
   13.6279   -6.4470    0.0000 C   0  0  0  0  0  0  0  0  0  0  0  0
   13.2151   -5.7327    0.0000 O   0  0  0  0  0  0  0  0  0  0  0  0
   14.4529   -6.4466    0.0000 N   0  0  0  0  0  0  0  0  0  0  0  0
   14.8657   -7.1609    0.0000 C   0  0  0  0  0  0  0  0  0  0  0  0
   15.6907   -7.1606    0.0000 C   0  0  0  0  0  0  0  0  0  0  0  0
    6.8305   -5.1008    0.0000 C   0  0  0  0  0  0  0  0  0  0  0  0
 13 14  2  0  0  0  0
  1  2  1  0  0  0  0
 14 15  1  0  0  0  0
 15 10  2  0  0  0  0
  1 10  1  0  0  0  0
  6  4  1  0  0  0  0
  5  6  2  0  0  0  0
 16 17  2  0  0  0  0
  7  8  1  0  0  0  0
 17 18  1  0  0  0  0
  8  9  2  0  0  0  0
 18 19  2  0  0  0  0
  9  5  1  0  0  0  0
 19 20  1  0  0  0  0
  4  1  2  0  0  0  0
 20 21  2  0  0  0  0
 21 16  1  0  0  0  0
  3 16  1  0  0  0  0
  6  7  1  0  0  0  0
  9 22  1  0  0  0  0
 10 11  1  0  0  0  0
 22 23  1  0  0  0  0
 23 24  2  0  0  0  0
 11 12  2  0  0  0  0
 23 25  1  0  0  0  0
  2  3  2  0  0  0  0
 25 26  1  0  0  0  0
 12 13  1  0  0  0  0
 26 27  1  0  0  0  0
  3  7  1  0  0  0  0
 13 28  1  0  0  0  0
M  END
> <From> 
www.bindingDB.org

> <BindingDB Reactant_set_id>
50904834

> <Ligand InChI>
InChI=1S/C20H19N7O/c1-3-21-20(28)26-17-12-27-16(19-22-7-4-8-23-19)9-15(10-18(27)25-17)14-6-5-13(2)24-11-14/h4-12H,3H2,1-2H3,(H2,21,26,28)

> <Ligand InChI Key>
KJDNVMISTFWXEK-UHFFFAOYSA-N

> <BindingDB MonomerID>
50378443

> <BindingDB Ligand Name>
CHEMBL568020

> <Target Name Assigned by Curator or DataSource>
DNA gyrase subunit B

> <Target Source Organism According to Curator or DataSource>
Streptococcus pneumoniae

> <Ki (nM)>


> <IC50 (nM)>
 44

> <Kd (nM)>


> <EC50 (nM)>


> <kon (M-1-s-1)>


> <koff (s-1)>


> <pH>


> <Temp C>


> <Curation/DataSource>
ChEMBL

> <Article DOI>
10.1016/j.bmcl.2009.07.141

> <PMID>
19683922

> <PubChem AID>


> <Patent Number>


> <Authors>
Starr, JT; Sciotti, RJ; Hanna, DL; Huband, MD; Mullins, LM; Cai, H; Gage, JW; Lockard, M; Rauckhorst, MR; Owen, RM; Lall, MS; Tomilo, M; Chen, H; McCurdy, SP; Barbachyn, MR

> <Institution>
Pfizer Inc.

> <Link to Ligand in BindingDB>
http://www.bindingdb.org/bind/chemsearch/marvin/MolStructure.jsp?monomerid=50378443

> <Link to Ligand-Target Pair in BindingDB>
http://www.bindingdb.org/jsp/dbsearch/PrimarySearch_ki.jsp?energyterm=kJ/mole&tag=pol&polymerid=50005944&target=DNA+gyrase+subunit+B&column=ki&startPg=0&Increment=50&submit=Search

> <Link to Ligand-Target Pair in BindingDB>
http://www.bindingdb.org/jsp/dbsearch/PrimarySearch_ki.jsp?energyterm=kJ/mole&tag=r21&monomerid=50378443&enzyme=DNA+gyrase+subunit+B&column=ki&startPg=0&Increment=50&submit=Search

> <Ligand HET ID in PDB>


> <PDB ID(s) for Ligand-Target Complex>


> <PubChem CID>
44555351

> <PubChem SID>
160857526

> <ChEBI ID of Ligand>


> <ChEMBL ID of Ligand>
CHEMBL568020

> <DrugBank ID of Ligand>


> <IUPHAR_GRAC ID of Ligand>


> <KEGG ID of Ligand>


> <ZINC ID of Ligand>
ZINC45257062

> <Number of Protein Chains in Target (>1 implies a multichain complex)>
1

> <BindingDB Target Chain Sequence>
MTEEIKNLQAQDYDASQIQVLEGLEAVRMRPGMYIGSTSKEGLHHLVWEIVDNSIDEALAGFASHIQVFIEPDDSITVVDDGRGIPVDIQEKTGRPAVETVFTVLHAGGKFGGGGYKVSGGLHGVGSSVVNALSTQLDVHVHKNGKIHYQEYRRGHVVADLEIVGDTDKTGTTVHFTPDPKIFTETTIFDFDKLNKRIQELAFLNRGLQISITDKRQGLEQTKHYHYEGGIASYVEYINENKDVIFDTPIYTDGEMDDITVEVAMQYTTGYHENVMSFANNIHTHEGGTHEQGFRTALTRVINDYARKNKLLKDNEDNLTGEDVREGLTAVISVKHPNPQFEGQTKTKLGNSEVVKITNRLFSEAFSDFLMENPQIAKRIVEKGILAAKARVAAKRAREVTRKKSGLEISNLPGKLADCSSNNPAETELFIVEGDSAGGSAKSGRNREFQAILPIRGKILNVEKASMDKILANEEIRSLFTAMGTGFGAEFDVSKARYQKLVLMTDADVDGAHIRTLLLTLIYRYMKPILEAGYVYIAQPPIYGVKVGSEIKEYIQPGADQEIKLQEALARYSEGRTKPTIQRYKGLGEMDDHQLWETTMDPEHRLMARVSVDDAAEADKIFDMLMGDRVEPRREFIEENAVYSTLDV

> <PDB ID(s) of Target Chain>
4Z2C,4Z2D,4Z2E

> <UniProt (SwissProt) Recommended Name of Target Chain>
DNA gyrase subunit B

> <UniProt (SwissProt) Entry Name of Target Chain>
GYRB_STRPN

> <UniProt (SwissProt) Primary ID of Target Chain>
P0A4L9

> <UniProt (SwissProt) Secondary ID(s) of Target Chain>
P48373

> <UniProt (SwissProt) Alternative ID(s) of Target Chain>


> <UniProt (TrEMBL) Submitted Name of Target Chain>


> <UniProt (TrEMBL) Entry Name of Target Chain>


> <UniProt (TrEMBL) Primary ID of Target Chain>


> <UniProt (TrEMBL) Secondary ID(s) of Target Chain>


> <UniProt (TrEMBL) Alternative ID(s) of Target Chain>


$$$$
 
  Mrv0541 11221409182D          

 44 47  0  0  0  0            999 V2000
   -0.2473    0.9000    0.0000 C   0  0  0  0  0  0  0  0  0  0  0  0
   -0.2484    0.0727    0.0000 C   0  0  0  0  0  0  0  0  0  0  0  0
    0.4664   -0.3402    0.0000 C   0  0  0  0  0  0  0  0  0  0  0  0
    0.4646    1.3128    0.0000 C   0  0  0  0  0  0  0  0  0  0  0  0
    1.1800    0.9037    0.0000 C   0  0  0  0  0  0  0  0  0  0  0  0
    1.1788    0.0752    0.0000 C   0  0  0  0  0  0  0  0  0  0  0  0
    1.8918   -0.3378    0.0000 C   0  0  0  0  0  0  0  0  0  0  0  0
    2.6104    0.0732    0.0000 C   0  0  0  0  0  0  0  0  0  0  0  0
    2.6116    0.9017    0.0000 C   0  0  0  0  0  0  0  0  0  0  0  0
    1.8941    1.3192    0.0000 O   0  0  0  0  0  0  0  0  0  0  0  0
    3.3271    1.3124    0.0000 O   0  0  0  0  0  0  0  0  0  0  0  0
    3.3237   -0.3413    0.0000 N   0  0  0  0  0  0  0  0  0  0  0  0
    4.0394    0.0692    0.0000 C   0  0  0  0  0  0  0  0  0  0  0  0
    4.7527   -0.3453    0.0000 C   0  0  0  0  0  0  0  0  0  0  0  0
    4.0417    0.8942    0.0000 O   0  0  0  0  0  0  0  0  0  0  0  0
    4.7449   -1.1677    0.0000 C   0  0  0  0  0  0  0  0  0  0  0  0
    5.4574   -1.5821    0.0000 C   0  0  0  0  0  0  0  0  0  0  0  0
    6.1740   -1.1716    0.0000 C   0  0  0  0  0  0  0  0  0  0  0  0
    6.1737   -0.3423    0.0000 C   0  0  0  0  0  0  0  0  0  0  0  0
    5.4606    0.0684    0.0000 C   0  0  0  0  0  0  0  0  0  0  0  0
    6.8879   -1.5851    0.0000 O   0  0  0  0  0  0  0  0  0  0  0  0
    5.4547   -2.4071    0.0000 C   0  0  0  0  0  0  0  0  0  0  0  0
    6.1678   -2.8220    0.0000 C   0  0  0  0  0  0  0  0  0  0  0  0
    6.1651   -3.6470    0.0000 C   0  0  0  0  0  0  0  0  0  0  0  0
    5.4493   -4.0571    0.0000 C   0  0  0  0  0  0  0  0  0  0  0  0
    6.8782   -4.0618    0.0000 C   0  0  0  0  0  0  0  0  0  0  0  0
    1.8894   -1.1628    0.0000 O   0  0  0  0  0  0  0  0  0  0  0  0
   -0.9618    1.3124    0.0000 O   0  0  0  0  0  0  0  0  0  0  0  0
   -1.6762    0.8997    0.0000 C   0  0  2  0  0  0  0  0  0  0  0  0
   -2.3887    1.3169    0.0000 O   0  0  0  0  0  0  0  0  0  0  0  0
   -3.1009    0.9077    0.0000 C   0  0  0  0  0  0  0  0  0  0  0  0
   -3.1050    0.0824    0.0000 C   0  0  1  0  0  0  0  0  0  0  0  0
   -2.3906   -0.3322    0.0000 C   0  0  2  0  0  0  0  0  0  0  0  0
   -1.6721    0.0786    0.0000 C   0  0  1  0  0  0  0  0  0  0  0  0
   -0.9575   -0.3336    0.0000 O   0  0  0  0  0  0  0  0  0  0  0  0
   -2.3932   -1.1572    0.0000 O   0  0  0  0  0  0  0  0  0  0  0  0
   -3.8209   -0.3276    0.0000 O   0  0  0  0  0  0  0  0  0  0  0  0
   -4.5339    0.0874    0.0000 C   0  0  0  0  0  0  0  0  0  0  0  0
   -3.3208    1.7083    0.0000 C   0  0  0  0  0  0  0  0  0  0  0  0
   -3.9042    0.6958    0.0000 C   0  0  0  0  0  0  0  0  0  0  0  0
   -3.1090   -1.5674    0.0000 C   0  0  0  0  0  0  0  0  0  0  0  0
   -3.1116   -2.3924    0.0000 N   0  0  0  0  0  0  0  0  0  0  0  0
   -3.8221   -1.1526    0.0000 O   0  0  0  0  0  0  0  0  0  0  0  0
    0.4621    2.1378    0.0000 C   0  0  0  0  0  0  0  0  0  0  0  0
 18 21  1  0  0  0  0
  9 10  1  0  0  0  0
 17 22  1  0  0  0  0
  5  6  1  0  0  0  0
 22 23  1  0  0  0  0
  9 11  2  0  0  0  0
 23 24  2  0  0  0  0
 24 25  1  0  0  0  0
  8 12  1  0  0  0  0
 24 26  1  0  0  0  0
  2  3  1  0  0  0  0
  7 27  1  0  0  0  0
 12 13  1  0  0  0  0
  1 28  1  0  0  0  0
  3  6  2  0  0  0  0
 29 28  1  1  0  0  0
 29 30  1  0  0  0  0
 13 14  1  0  0  0  0
  1  2  2  0  0  0  0
 13 15  2  0  0  0  0
  5  4  2  0  0  0  0
 14 16  2  0  0  0  0
 34 29  1  0  0  0  0
 30 31  1  0  0  0  0
 32 31  1  0  0  0  0
 33 32  1  0  0  0  0
 33 34  1  0  0  0  0
  4  1  1  0  0  0  0
 34 35  1  6  0  0  0
 16 17  1  0  0  0  0
 33 36  1  6  0  0  0
  5 10  1  0  0  0  0
 32 37  1  1  0  0  0
 17 18  2  0  0  0  0
 37 38  1  0  0  0  0
  6  7  1  0  0  0  0
 31 39  1  0  0  0  0
 18 19  1  0  0  0  0
 31 40  1  0  0  0  0
  7  8  2  0  0  0  0
 36 41  1  0  0  0  0
 19 20  2  0  0  0  0
 41 42  1  0  0  0  0
 20 14  1  0  0  0  0
 41 43  2  0  0  0  0
  8  9  1  0  0  0  0
  4 44  1  0  0  0  0
M  END
> <From> 
www.bindingDB.org

> <BindingDB Reactant_set_id>
50528073

> <Ligand InChI>
InChI=1S/C31H36N2O11/c1-14(2)7-8-16-13-17(9-11-19(16)34)27(37)33-21-22(35)18-10-12-20(15(3)24(18)42-28(21)38)41-29-23(36)25(43-30(32)39)26(40-6)31(4,5)44-29/h7,9-13,23,25-26,29,34-36H,8H2,1-6H3,(H2,32,39)(H,33,37)/t23-,25+,26-,29-/m1/s1

> <Ligand InChI Key>
YJQPYGGHQPGBLI-KGSXXDOSSA-N

> <BindingDB MonomerID>
50226181

> <BindingDB Ligand Name>
(3R,4S,5R,6R)-5-hydroxy-6-(4-hydroxy-3-(4-hydroxy-3-(3-methylbut-2-enyl)benzamido)-2-oxo-2H-chromen-7-yloxy)-3-methoxy-2,2-dimethyl-tetrahydro-2H-pyran-4-yl carbamate::(3R,4S,5R,6R)-5-hydroxy-6-(4-hydroxy-3-(4-hydroxy-3-(3-methylbut-2-enyl)benzamido)-8-methyl-2-oxo-2H-chromen-7-yloxy)-3-methoxy-2,2-dimethyl-tetrahydro-2H-pyran-4-yl carbamate::CHEMBL36506::Carbamic acid (3R,4S,5R,6R)-5-hydroxy-6-{4-hydroxy-3-[4-hydroxy-3-(3-methyl-but-2-enyl)-benzoylamino]-8-methyl-2-oxo-2H-chromen-7-yloxy}-3-methoxy-2,2-dimethyl-tetrahydro-pyran-4-yl ester::Carbamic acid (3R,4S,5R,6R)-5-hydroxy-6-{4-hydroxy-3-[4-hydroxy-3-(4-methyl-pent-3-enyl)-benzoylamino]-8-methyl-2-oxo-2H-chromen-7-yloxy}-3-methoxy-2,2-dimethyl-tetrahydro-pyran-4-yl ester::Carbamic acid 5-hydroxy-6-{4-hydroxy-3-[4-hydroxy-3-(3-methyl-but-2-enyl)-benzoylamino]-8-methyl-2-oxo-2H-chromen-7-yloxy}-3-methoxy-2,2-dimethyl-tetrahydro-pyran-4-yl ester::Carbamic acid 5-hydroxy-6-{4-hydroxy-3-[4-hydroxy-3-(3-methyl-but-2-enyl)-benzoylamino]-8-methyl-2-oxo-2H-chromen-7-yloxy}-3-methoxy-2,2-dimethyl-tetrahydro-pyran-4-yl ester(Novobiocin)::NOVOBIOCIN

> <Target Name Assigned by Curator or DataSource>
DNA gyrase subunit B

> <Target Source Organism According to Curator or DataSource>


> <Ki (nM)>


> <IC50 (nM)>
 46

> <Kd (nM)>


> <EC50 (nM)>


> <kon (M-1-s-1)>


> <koff (s-1)>


> <pH>


> <Temp C>


> <Curation/DataSource>
ChEMBL

> <Article DOI>
10.1016/j.ejmech.2016.06.042

> <PMID>
27371925

> <PubChem AID>


> <Patent Number>


> <Authors>
Jeankumar, VU; Reshma, RS; Vats, R; Janupally, R; Saxena, S; Yogeeswari, P; Sriram, D

> <Institution>
Birla Institute of Technology&amp; Science-Pilani

> <Link to Ligand in BindingDB>
http://www.bindingdb.org/bind/chemsearch/marvin/MolStructure.jsp?monomerid=50226181

> <Link to Ligand-Target Pair in BindingDB>
http://www.bindingdb.org/jsp/dbsearch/PrimarySearch_ki.jsp?energyterm=kJ/mole&tag=pol&polymerid=50006452&target=DNA+gyrase+subunit+B&column=ki&startPg=0&Increment=50&submit=Search

> <Link to Ligand-Target Pair in BindingDB>
http://www.bindingdb.org/jsp/dbsearch/PrimarySearch_ki.jsp?energyterm=kJ/mole&tag=r21&monomerid=50226181&enzyme=DNA+gyrase+subunit+B&column=ki&startPg=0&Increment=50&submit=Search

> <Ligand HET ID in PDB>
NOV

> <PDB ID(s) for Ligand-Target Complex>
1AJ6,1KIJ,1S14,3LPS,4URN,4URO

> <PubChem CID>
54675769

> <PubChem SID>
104097057

> <ChEBI ID of Ligand>
28368

> <ChEMBL ID of Ligand>
CHEMBL36506

> <DrugBank ID of Ligand>
DB01051

> <IUPHAR_GRAC ID of Ligand>


> <KEGG ID of Ligand>
C05080

> <ZINC ID of Ligand>
ZINC14879999

> <Number of Protein Chains in Target (>1 implies a multichain complex)>
1

> <BindingDB Target Chain Sequence>
MAAQKNNAPKEYGADSITILEGLEAVRKRPGMYIGSTGERGLHHLIWEVVDNAVDEAMAGFATRVDVKIHADGSVEVRDDGRGIPVEMHATGMPTIDVVMTQLHAGGKFDGETYAVSGGLHGVGVSVVNALSTRLEATVLRDGYEWFQYYDRSVPGKLKQGGETKETGTTIRFWADPEIFETTDYNFETVARRLQEMAFLNKGLTIELTDERVTAEEVVDDVVKDTAEAPKTADEKAAEATGPSKVKHRVFHYPGGLVDYVKHINRTKTPIQQSIIDFDGKGPGHEVEIAMQWNAGYSESVHTFANTINTHEGGTHEEGFRAALTSVVNRYAKDKKLLKDKDPNLTGDDIREGLAAVISVKVAEPQFEGQTKTKLGNTEVKSFVQKICNEQLQHWFEANPAEAKTVVNKAVSSAQARIAARKARELVRRKSATDIGGLPGKLADCRSTDPSKSELYVVEGDSAGGSAKSGRDSMFQAILPLRGKIINVEKARIDRVLKNTEVQSIITALGTGIHDEFDISKLRYHKIVLMADADVDGQHISTLLLTLLFRFMKPLVENGHIFLAQPPLYKLKWQRSEPEFAYSDRERDGLLEAGRAAGKKINVDDGIQRYKGLGEMDAKELWETTMDPSVRVLRQVTLDDAAAADELFSILMGEDVEARRSFITRNAKDVRFLDV

> <PDB ID(s) of Target Chain>
4BAE

> <UniProt (SwissProt) Recommended Name of Target Chain>
DNA gyrase subunit B

> <UniProt (SwissProt) Entry Name of Target Chain>
GYRB_MYCSM

> <UniProt (SwissProt) Primary ID of Target Chain>
P0C559

> <UniProt (SwissProt) Secondary ID(s) of Target Chain>
P48355,Q59555

> <UniProt (SwissProt) Alternative ID(s) of Target Chain>


> <UniProt (TrEMBL) Submitted Name of Target Chain>


> <UniProt (TrEMBL) Entry Name of Target Chain>


> <UniProt (TrEMBL) Primary ID of Target Chain>


> <UniProt (TrEMBL) Secondary ID(s) of Target Chain>


> <UniProt (TrEMBL) Alternative ID(s) of Target Chain>


$$$$

  SciTegic09291413392D

 27 29  0  0  0  0            999 V2000
    1.6825   -7.8871    0.0000 C   0  0
    1.6813   -8.7066    0.0000 C   0  0
    2.3894   -9.1156    0.0000 N   0  0
    2.3876   -7.4782    0.0000 C   0  0
    3.0962   -7.8835    0.0000 C   0  0
    3.1011   -8.7067    0.0000 C   0  0
    3.8854   -8.9565    0.0000 S   0  0
    4.3654   -8.2876    0.0000 C   0  0
    3.8776   -7.6246    0.0000 N   0  0
    0.9768   -7.4788    0.0000 C   0  0
    0.9779   -6.6605    0.0000 C   0  0
    0.2709   -6.2522    0.0000 C   0  0
   -0.4456   -6.6610    0.0000 C   0  0
   -0.4401   -7.4824    0.0000 N   0  0
    5.1826   -8.2828    0.0000 N   0  0
    5.5870   -7.5727    0.0000 C   0  0
    6.4042   -7.5679    0.0000 N   0  0
    5.1742   -6.8674    0.0000 O   0  0
    6.8086   -6.8578    0.0000 C   0  0
    7.6258   -6.8530    0.0000 C   0  0
    0.9733   -9.1147    0.0000 O   0  0
    0.2659   -8.7055    0.0000 C   0  0
    8.0302   -6.1428    0.0000 C   0  0
    0.2666   -7.8883    0.0000 C   0  0
   -0.4494   -9.1135    0.0000 C   0  0
   -1.1535   -8.7044    0.0000 O   0  0
   -1.8652   -9.1124    0.0000 C   0  0
  1  2  2  0
  2  3  1  0
  3  6  2  0
  5  4  2  0
  4  1  1  0
  5  6  1  0
  6  7  1  0
  7  8  1  0
  8  9  2  0
  9  5  1  0
 10 11  2  0
 11 12  1  0
 12 13  2  0
 13 14  1  0
 14 24  2  0
 24 10  1  0
  1 10  1  0
  8 15  1  0
 15 16  1  0
 16 17  1  0
 16 18  2  0
 17 19  1  0
 19 20  1  0
  2 21  1  0
 21 22  1  0
 20 23  2  0
 22 25  1  0
 25 26  1  0
 26 27  1  0
M  END
> <From> 
www.bindingDB.org

> <BindingDB Reactant_set_id>
50089898

> <Ligand InChI>
InChI=1S/C18H19N5O3S/c1-3-6-20-17(24)23-18-21-14-10-13(12-5-4-7-19-11-12)15(22-16(14)27-18)26-9-8-25-2/h3-5,7,10-11H,1,6,8-9H2,2H3,(H2,20,21,23,24)

> <Ligand InChI Key>
UGAWLNGDQSYNDJ-UHFFFAOYSA-N

> <BindingDB MonomerID>
50010344

> <BindingDB Ligand Name>
CHEMBL3263588

> <Target Name Assigned by Curator or DataSource>
DNA gyrase subunit B

> <Target Source Organism According to Curator or DataSource>


> <Ki (nM)>


> <IC50 (nM)>
 46

> <Kd (nM)>


> <EC50 (nM)>


> <kon (M-1-s-1)>


> <koff (s-1)>


> <pH>


> <Temp C>


> <Curation/DataSource>
ChEMBL

> <Article DOI>
10.1021/jm401268f

> <PMID>
24088190

> <PubChem AID>


> <Patent Number>


> <Authors>
Ahuja, V; Ahuja, V; Basavarajappa, H; Basavarajappa, H; P, SH; P, SH; Boriack-Sjodin, PA; Boriack-Sjodin, PA; McKinney, D; McKinney, D; Ganguly, S; Ganguly, S; Kranthi, U; Kranthi, U; Gaonkar, S; Gaonkar, S; Jena, Lk; Jena, Lk; Ghorpade, SR; Ghorpade, SR; Ghosh, A; Ghosh, A; Barde, S; Barde, S; Kale, MG; Kale, MG; Koushik, K; Koushik, K; Kumar, CN; Kumar, CN; Manjunatha, MR; Manjunatha, MR; Ogg, D; Ogg, D; Panduga, V; Panduga, V; Ramya, VK; Ramya, VK; Reddy, J; Reddy, J; Kumar, KN; Kumar, KN; Giridhar, J; Giridhar, J; Rudrapatna, S; Rudrapatna, S; Sharma, S; Sharma, S; Tucker, JA; Tucker, JA; Vachaspati, P; Vachaspati, P; Waterson, D; Waterson, D; de Sousa, SM; de Sousa, SM

> <Institution>
AstraZeneca India Pvt. Ltd.

> <Link to Ligand in BindingDB>
http://www.bindingdb.org/bind/chemsearch/marvin/MolStructure.jsp?monomerid=50010344

> <Link to Ligand-Target Pair in BindingDB>
http://www.bindingdb.org/jsp/dbsearch/PrimarySearch_ki.jsp?energyterm=kJ/mole&tag=pol&polymerid=50006452&target=DNA+gyrase+subunit+B&column=ki&startPg=0&Increment=50&submit=Search

> <Link to Ligand-Target Pair in BindingDB>
http://www.bindingdb.org/jsp/dbsearch/PrimarySearch_ki.jsp?energyterm=kJ/mole&tag=r21&monomerid=50010344&enzyme=DNA+gyrase+subunit+B&column=ki&startPg=0&Increment=50&submit=Search

> <Ligand HET ID in PDB>


> <PDB ID(s) for Ligand-Target Complex>


> <PubChem CID>
59352819

> <PubChem SID>
103923158

> <ChEBI ID of Ligand>


> <ChEMBL ID of Ligand>
CHEMBL3263588

> <DrugBank ID of Ligand>


> <IUPHAR_GRAC ID of Ligand>


> <KEGG ID of Ligand>


> <ZINC ID of Ligand>
ZINC13446867

> <Number of Protein Chains in Target (>1 implies a multichain complex)>
1

> <BindingDB Target Chain Sequence>
MAAQKNNAPKEYGADSITILEGLEAVRKRPGMYIGSTGERGLHHLIWEVVDNAVDEAMAGFATRVDVKIHADGSVEVRDDGRGIPVEMHATGMPTIDVVMTQLHAGGKFDGETYAVSGGLHGVGVSVVNALSTRLEATVLRDGYEWFQYYDRSVPGKLKQGGETKETGTTIRFWADPEIFETTDYNFETVARRLQEMAFLNKGLTIELTDERVTAEEVVDDVVKDTAEAPKTADEKAAEATGPSKVKHRVFHYPGGLVDYVKHINRTKTPIQQSIIDFDGKGPGHEVEIAMQWNAGYSESVHTFANTINTHEGGTHEEGFRAALTSVVNRYAKDKKLLKDKDPNLTGDDIREGLAAVISVKVAEPQFEGQTKTKLGNTEVKSFVQKICNEQLQHWFEANPAEAKTVVNKAVSSAQARIAARKARELVRRKSATDIGGLPGKLADCRSTDPSKSELYVVEGDSAGGSAKSGRDSMFQAILPLRGKIINVEKARIDRVLKNTEVQSIITALGTGIHDEFDISKLRYHKIVLMADADVDGQHISTLLLTLLFRFMKPLVENGHIFLAQPPLYKLKWQRSEPEFAYSDRERDGLLEAGRAAGKKINVDDGIQRYKGLGEMDAKELWETTMDPSVRVLRQVTLDDAAAADELFSILMGEDVEARRSFITRNAKDVRFLDV

> <PDB ID(s) of Target Chain>
4BAE

> <UniProt (SwissProt) Recommended Name of Target Chain>
DNA gyrase subunit B

> <UniProt (SwissProt) Entry Name of Target Chain>
GYRB_MYCSM

> <UniProt (SwissProt) Primary ID of Target Chain>
P0C559

> <UniProt (SwissProt) Secondary ID(s) of Target Chain>
P48355,Q59555

> <UniProt (SwissProt) Alternative ID(s) of Target Chain>


> <UniProt (TrEMBL) Submitted Name of Target Chain>


> <UniProt (TrEMBL) Entry Name of Target Chain>


> <UniProt (TrEMBL) Primary ID of Target Chain>


> <UniProt (TrEMBL) Secondary ID(s) of Target Chain>


> <UniProt (TrEMBL) Alternative ID(s) of Target Chain>


$$$$

  Mrv0541 11241415502D          

 44 47  0  0  1  0            999 V2000
   10.7542   -7.9589    0.0000 C   0  0  0  0  0  0  0  0  0  0  0  0
   10.0397   -7.5464    0.0000 O   0  0  0  0  0  0  0  0  0  0  0  0
   10.0397   -6.7214    0.0000 C   0  0  2  0  0  0  0  0  0  0  0  0
    9.3253   -6.3089    0.0000 C   0  0  1  0  0  0  0  0  0  0  0  0
    8.6108   -6.7214    0.0000 O   0  0  0  0  0  0  0  0  0  0  0  0
    8.6108   -7.5464    0.0000 C   0  0  0  0  0  0  0  0  0  0  0  0
    9.3253   -7.9589    0.0000 O   0  0  0  0  0  0  0  0  0  0  0  0
    7.8963   -7.9589    0.0000 N   0  0  0  0  0  0  0  0  0  0  0  0
    9.3253   -5.4839    0.0000 C   0  0  2  0  0  0  0  0  0  0  0  0
    8.6108   -5.0714    0.0000 O   0  0  0  0  0  0  0  0  0  0  0  0
   10.0397   -5.0714    0.0000 C   0  0  1  0  0  0  0  0  0  0  0  0
   10.0397   -4.2464    0.0000 O   0  0  0  0  0  0  0  0  0  0  0  0
   10.7542   -3.8339    0.0000 C   0  0  0  0  0  0  0  0  0  0  0  0
   10.7542   -3.0089    0.0000 C   0  0  0  0  0  0  0  0  0  0  0  0
   11.4687   -2.5964    0.0000 C   0  0  0  0  0  0  0  0  0  0  0  0
   12.1831   -3.0089    0.0000 C   0  0  0  0  0  0  0  0  0  0  0  0
   12.8976   -2.5964    0.0000 C   0  0  0  0  0  0  0  0  0  0  0  0
   13.6121   -3.0089    0.0000 C   0  0  0  0  0  0  0  0  0  0  0  0
   14.3266   -2.5964    0.0000 N   0  0  0  0  0  0  0  0  0  0  0  0
   15.0410   -3.0089    0.0000 C   0  0  0  0  0  0  0  0  0  0  0  0
   15.0410   -3.8339    0.0000 O   0  0  0  0  0  0  0  0  0  0  0  0
   15.7555   -2.5964    0.0000 C   0  0  0  0  0  0  0  0  0  0  0  0
   15.7555   -1.7714    0.0000 C   0  0  0  0  0  0  0  0  0  0  0  0
   16.4700   -1.3589    0.0000 C   0  0  0  0  0  0  0  0  0  0  0  0
   17.1844   -1.7714    0.0000 C   0  0  0  0  0  0  0  0  0  0  0  0
   17.8989   -1.3589    0.0000 O   0  0  0  0  0  0  0  0  0  0  0  0
   17.1844   -2.5964    0.0000 C   0  0  0  0  0  0  0  0  0  0  0  0
   17.8989   -3.0089    0.0000 C   0  0  0  0  0  0  0  0  0  0  0  0
   18.6134   -2.5964    0.0000 C   0  0  0  0  0  0  0  0  0  0  0  0
   19.3279   -3.0089    0.0000 C   0  0  0  0  0  0  0  0  0  0  0  0
   20.0423   -2.5964    0.0000 C   0  0  0  0  0  0  0  0  0  0  0  0
   19.3279   -3.8339    0.0000 C   0  0  0  0  0  0  0  0  0  0  0  0
   16.4700   -3.0089    0.0000 C   0  0  0  0  0  0  0  0  0  0  0  0
   13.6121   -3.8339    0.0000 C   0  0  0  0  0  0  0  0  0  0  0  0
   14.3266   -4.2464    0.0000 O   0  0  0  0  0  0  0  0  0  0  0  0
   12.8976   -4.2464    0.0000 O   0  0  0  0  0  0  0  0  0  0  0  0
   12.1831   -3.8339    0.0000 C   0  0  0  0  0  0  0  0  0  0  0  0
   11.4687   -4.2464    0.0000 C   0  0  0  0  0  0  0  0  0  0  0  0
   11.4687   -5.0714    0.0000 C   0  0  0  0  0  0  0  0  0  0  0  0
   12.8976   -1.7714    0.0000 O   0  0  0  0  0  0  0  0  0  0  0  0
   10.7542   -5.4839    0.0000 O   0  0  0  0  0  0  0  0  0  0  0  0
   10.7542   -6.3089    0.0000 C   0  0  0  0  0  0  0  0  0  0  0  0
   11.5787   -6.3377    0.0000 C   0  0  0  0  0  0  0  0  0  0  0  0
   11.1914   -7.0085    0.0000 C   0  0  0  0  0  0  0  0  0  0  0  0
  1  2  1  0  0  0  0
  3  2  1  6  0  0  0
  4  3  1  0  0  0  0
  4  5  1  1  0  0  0
  5  6  1  0  0  0  0
  6  7  2  0  0  0  0
  6  8  1  0  0  0  0
  4  9  1  0  0  0  0
  9 10  1  6  0  0  0
  9 11  1  0  0  0  0
 11 12  1  1  0  0  0
 12 13  1  0  0  0  0
 13 14  2  0  0  0  0
 14 15  1  0  0  0  0
 15 16  2  0  0  0  0
 16 17  1  0  0  0  0
 17 18  2  0  0  0  0
 18 19  1  0  0  0  0
 19 20  1  0  0  0  0
 20 21  2  0  0  0  0
 20 22  1  0  0  0  0
 22 23  2  0  0  0  0
 23 24  1  0  0  0  0
 24 25  2  0  0  0  0
 25 26  1  0  0  0  0
 25 27  1  0  0  0  0
 27 28  1  0  0  0  0
 28 29  1  0  0  0  0
 29 30  2  0  0  0  0
 30 31  1  0  0  0  0
 30 32  1  0  0  0  0
 27 33  2  0  0  0  0
 22 33  1  0  0  0  0
 18 34  1  0  0  0  0
 34 35  2  0  0  0  0
 34 36  1  0  0  0  0
 36 37  1  0  0  0  0
 16 37  1  0  0  0  0
 37 38  2  0  0  0  0
 13 38  1  0  0  0  0
 38 39  1  0  0  0  0
 17 40  1  0  0  0  0
 11 41  1  0  0  0  0
 41 42  1  0  0  0  0
  3 42  1  0  0  0  0
 42 43  1  0  0  0  0
 42 44  1  0  0  0  0
M  END
> <From> 
www.bindingDB.org

> <BindingDB Reactant_set_id>
50302352

> <Ligand InChI>
InChI=1S/C31H36N2O11/c1-14(2)7-8-16-13-17(9-11-19(16)34)27(37)33-21-22(35)18-10-12-20(15(3)24(18)42-28(21)38)41-29-23(36)25(43-30(32)39)26(40-6)31(4,5)44-29/h7,9-13,23,25-26,29,34-36H,8H2,1-6H3,(H2,32,39)(H,33,37)/t23-,25-,26+,29-/m0/s1

> <Ligand InChI Key>
YJQPYGGHQPGBLI-FWPHEPGVSA-N

> <BindingDB MonomerID>
50423645

> <BindingDB Ligand Name>
Albamycin::Cathomycin::NOVOBIOCIN

> <Target Name Assigned by Curator or DataSource>
DNA gyrase subunit B

> <Target Source Organism According to Curator or DataSource>


> <Ki (nM)>


> <IC50 (nM)>
 46

> <Kd (nM)>


> <EC50 (nM)>


> <kon (M-1-s-1)>


> <koff (s-1)>


> <pH>


> <Temp C>
25.00

> <Curation/DataSource>
ChEMBL

> <Article DOI>
10.1016/j.bmc.2015.02.032

> <PMID>
25766629

> <PubChem AID>


> <Patent Number>


> <Authors>
Saxena, S; Samala, G; Renuka, J; Sridevi, JP; Yogeeswari, P; Sriram, D

> <Institution>
Birla Institute of Technology&amp; Science-Pilani

> <Link to Ligand in BindingDB>
http://www.bindingdb.org/bind/chemsearch/marvin/MolStructure.jsp?monomerid=50423645

> <Link to Ligand-Target Pair in BindingDB>
http://www.bindingdb.org/jsp/dbsearch/PrimarySearch_ki.jsp?energyterm=kJ/mole&tag=pol&polymerid=50006452&target=DNA+gyrase+subunit+B&column=ki&startPg=0&Increment=50&submit=Search

> <Link to Ligand-Target Pair in BindingDB>
http://www.bindingdb.org/jsp/dbsearch/PrimarySearch_ki.jsp?energyterm=kJ/mole&tag=r21&monomerid=50423645&enzyme=DNA+gyrase+subunit+B&column=ki&startPg=0&Increment=50&submit=Search

> <Ligand HET ID in PDB>


> <PDB ID(s) for Ligand-Target Complex>


> <PubChem CID>
71719647

> <PubChem SID>
164152520

> <ChEBI ID of Ligand>


> <ChEMBL ID of Ligand>


> <DrugBank ID of Ligand>


> <IUPHAR_GRAC ID of Ligand>


> <KEGG ID of Ligand>


> <ZINC ID of Ligand>
ZINC76945632

> <Number of Protein Chains in Target (>1 implies a multichain complex)>
1

> <BindingDB Target Chain Sequence>
MAAQKNNAPKEYGADSITILEGLEAVRKRPGMYIGSTGERGLHHLIWEVVDNAVDEAMAGFATRVDVKIHADGSVEVRDDGRGIPVEMHATGMPTIDVVMTQLHAGGKFDGETYAVSGGLHGVGVSVVNALSTRLEATVLRDGYEWFQYYDRSVPGKLKQGGETKETGTTIRFWADPEIFETTDYNFETVARRLQEMAFLNKGLTIELTDERVTAEEVVDDVVKDTAEAPKTADEKAAEATGPSKVKHRVFHYPGGLVDYVKHINRTKTPIQQSIIDFDGKGPGHEVEIAMQWNAGYSESVHTFANTINTHEGGTHEEGFRAALTSVVNRYAKDKKLLKDKDPNLTGDDIREGLAAVISVKVAEPQFEGQTKTKLGNTEVKSFVQKICNEQLQHWFEANPAEAKTVVNKAVSSAQARIAARKARELVRRKSATDIGGLPGKLADCRSTDPSKSELYVVEGDSAGGSAKSGRDSMFQAILPLRGKIINVEKARIDRVLKNTEVQSIITALGTGIHDEFDISKLRYHKIVLMADADVDGQHISTLLLTLLFRFMKPLVENGHIFLAQPPLYKLKWQRSEPEFAYSDRERDGLLEAGRAAGKKINVDDGIQRYKGLGEMDAKELWETTMDPSVRVLRQVTLDDAAAADELFSILMGEDVEARRSFITRNAKDVRFLDV

> <PDB ID(s) of Target Chain>
4BAE

> <UniProt (SwissProt) Recommended Name of Target Chain>
DNA gyrase subunit B

> <UniProt (SwissProt) Entry Name of Target Chain>
GYRB_MYCSM

> <UniProt (SwissProt) Primary ID of Target Chain>
P0C559

> <UniProt (SwissProt) Secondary ID(s) of Target Chain>
P48355,Q59555

> <UniProt (SwissProt) Alternative ID(s) of Target Chain>


> <UniProt (TrEMBL) Submitted Name of Target Chain>


> <UniProt (TrEMBL) Entry Name of Target Chain>


> <UniProt (TrEMBL) Primary ID of Target Chain>


> <UniProt (TrEMBL) Secondary ID(s) of Target Chain>


> <UniProt (TrEMBL) Alternative ID(s) of Target Chain>


$$$$

  SciTegic09291413392D

 30 33  0  0  0  0            999 V2000
    1.5463  -12.8687    0.0000 C   0  0
    1.5451  -13.6882    0.0000 C   0  0
    2.2532  -14.0972    0.0000 N   0  0
    2.2514  -12.4598    0.0000 C   0  0
    2.9600  -12.8651    0.0000 C   0  0
    2.9649  -13.6882    0.0000 C   0  0
    3.7492  -13.9380    0.0000 S   0  0
    4.2292  -13.2692    0.0000 C   0  0
    3.7414  -12.6062    0.0000 N   0  0
    0.8406  -12.4604    0.0000 C   0  0
    0.8417  -11.6421    0.0000 C   0  0
    0.1347  -11.2338    0.0000 N   0  0
   -0.5818  -11.6426    0.0000 C   0  0
   -0.5763  -12.4640    0.0000 C   0  0
    5.0464  -13.2644    0.0000 N   0  0
    5.4508  -12.5543    0.0000 C   0  0
    6.2680  -12.5495    0.0000 N   0  0
    5.0381  -11.8490    0.0000 O   0  0
    6.6724  -11.8393    0.0000 C   0  0
    7.4896  -11.8345    0.0000 C   0  0
    0.1304  -12.8699    0.0000 C   0  0
    0.8371  -14.0962    0.0000 N   0  0
   -1.2849  -11.2351    0.0000 C   0  0
   -1.9972  -10.8291    0.0000 N   0  0
    0.8365  -14.9134    0.0000 C   0  0
    0.1290  -15.3206    0.0000 C   0  0
    0.1264  -16.1342    0.0000 C   0  0
    0.8320  -16.5472    0.0000 O   0  0
    1.5418  -16.1404    0.0000 C   0  0
    1.5461  -15.3206    0.0000 C   0  0
  1  2  2  0
  2  3  1  0
  3  6  2  0
  5  4  2  0
  4  1  1  0
  5  6  1  0
  6  7  1  0
  7  8  1  0
  8  9  2  0
  9  5  1  0
 10 11  2  0
 11 12  1  0
 12 13  2  0
 13 14  1  0
 14 21  2  0
 21 10  1  0
  1 10  1  0
  8 15  1  0
 15 16  1  0
 16 17  1  0
 16 18  2  0
 17 19  1  0
 19 20  1  0
  2 22  1  0
 13 23  1  0
 23 24  3  0
 22 25  1  0
 25 26  1  0
 25 30  1  0
 26 27  1  0
 27 28  1  0
 28 29  1  0
 29 30  1  0
M  END
> <From> 
www.bindingDB.org

> <BindingDB Reactant_set_id>
50089935

> <Ligand InChI>
InChI=1S/C20H21N7O2S/c1-2-22-19(28)27-20-25-16-9-15(12-3-4-14(10-21)23-11-12)17(26-18(16)30-20)24-13-5-7-29-8-6-13/h3-4,9,11,13H,2,5-8H2,1H3,(H,24,26)(H2,22,25,27,28)

> <Ligand InChI Key>
UHYLGVAPCASYSM-UHFFFAOYSA-N

> <BindingDB MonomerID>
50010368

> <BindingDB Ligand Name>
CHEMBL3263610

> <Target Name Assigned by Curator or DataSource>
DNA gyrase subunit B

> <Target Source Organism According to Curator or DataSource>


> <Ki (nM)>


> <IC50 (nM)>
 47

> <Kd (nM)>


> <EC50 (nM)>


> <kon (M-1-s-1)>


> <koff (s-1)>


> <pH>


> <Temp C>


> <Curation/DataSource>
ChEMBL

> <Article DOI>
10.1021/jm401268f

> <PMID>
24088190

> <PubChem AID>


> <Patent Number>


> <Authors>
Ahuja, V; Ahuja, V; Basavarajappa, H; Basavarajappa, H; P, SH; P, SH; Boriack-Sjodin, PA; Boriack-Sjodin, PA; McKinney, D; McKinney, D; Ganguly, S; Ganguly, S; Kranthi, U; Kranthi, U; Gaonkar, S; Gaonkar, S; Jena, Lk; Jena, Lk; Ghorpade, SR; Ghorpade, SR; Ghosh, A; Ghosh, A; Barde, S; Barde, S; Kale, MG; Kale, MG; Koushik, K; Koushik, K; Kumar, CN; Kumar, CN; Manjunatha, MR; Manjunatha, MR; Ogg, D; Ogg, D; Panduga, V; Panduga, V; Ramya, VK; Ramya, VK; Reddy, J; Reddy, J; Kumar, KN; Kumar, KN; Giridhar, J; Giridhar, J; Rudrapatna, S; Rudrapatna, S; Sharma, S; Sharma, S; Tucker, JA; Tucker, JA; Vachaspati, P; Vachaspati, P; Waterson, D; Waterson, D; de Sousa, SM; de Sousa, SM

> <Institution>
AstraZeneca India Pvt. Ltd.

> <Link to Ligand in BindingDB>
http://www.bindingdb.org/bind/chemsearch/marvin/MolStructure.jsp?monomerid=50010368

> <Link to Ligand-Target Pair in BindingDB>
http://www.bindingdb.org/jsp/dbsearch/PrimarySearch_ki.jsp?energyterm=kJ/mole&tag=pol&polymerid=50006452&target=DNA+gyrase+subunit+B&column=ki&startPg=0&Increment=50&submit=Search

> <Link to Ligand-Target Pair in BindingDB>
http://www.bindingdb.org/jsp/dbsearch/PrimarySearch_ki.jsp?energyterm=kJ/mole&tag=r21&monomerid=50010368&enzyme=DNA+gyrase+subunit+B&column=ki&startPg=0&Increment=50&submit=Search

> <Ligand HET ID in PDB>


> <PDB ID(s) for Ligand-Target Complex>


> <PubChem CID>
72713307

> <PubChem SID>
103923182

> <ChEBI ID of Ligand>


> <ChEMBL ID of Ligand>
CHEMBL3263610

> <DrugBank ID of Ligand>


> <IUPHAR_GRAC ID of Ligand>


> <KEGG ID of Ligand>


> <ZINC ID of Ligand>
ZINC26972324

> <Number of Protein Chains in Target (>1 implies a multichain complex)>
1

> <BindingDB Target Chain Sequence>
MAAQKNNAPKEYGADSITILEGLEAVRKRPGMYIGSTGERGLHHLIWEVVDNAVDEAMAGFATRVDVKIHADGSVEVRDDGRGIPVEMHATGMPTIDVVMTQLHAGGKFDGETYAVSGGLHGVGVSVVNALSTRLEATVLRDGYEWFQYYDRSVPGKLKQGGETKETGTTIRFWADPEIFETTDYNFETVARRLQEMAFLNKGLTIELTDERVTAEEVVDDVVKDTAEAPKTADEKAAEATGPSKVKHRVFHYPGGLVDYVKHINRTKTPIQQSIIDFDGKGPGHEVEIAMQWNAGYSESVHTFANTINTHEGGTHEEGFRAALTSVVNRYAKDKKLLKDKDPNLTGDDIREGLAAVISVKVAEPQFEGQTKTKLGNTEVKSFVQKICNEQLQHWFEANPAEAKTVVNKAVSSAQARIAARKARELVRRKSATDIGGLPGKLADCRSTDPSKSELYVVEGDSAGGSAKSGRDSMFQAILPLRGKIINVEKARIDRVLKNTEVQSIITALGTGIHDEFDISKLRYHKIVLMADADVDGQHISTLLLTLLFRFMKPLVENGHIFLAQPPLYKLKWQRSEPEFAYSDRERDGLLEAGRAAGKKINVDDGIQRYKGLGEMDAKELWETTMDPSVRVLRQVTLDDAAAADELFSILMGEDVEARRSFITRNAKDVRFLDV

> <PDB ID(s) of Target Chain>
4BAE

> <UniProt (SwissProt) Recommended Name of Target Chain>
DNA gyrase subunit B

> <UniProt (SwissProt) Entry Name of Target Chain>
GYRB_MYCSM

> <UniProt (SwissProt) Primary ID of Target Chain>
P0C559

> <UniProt (SwissProt) Secondary ID(s) of Target Chain>
P48355,Q59555

> <UniProt (SwissProt) Alternative ID(s) of Target Chain>


> <UniProt (TrEMBL) Submitted Name of Target Chain>


> <UniProt (TrEMBL) Entry Name of Target Chain>


> <UniProt (TrEMBL) Primary ID of Target Chain>


> <UniProt (TrEMBL) Secondary ID(s) of Target Chain>


> <UniProt (TrEMBL) Alternative ID(s) of Target Chain>


$$$$

  Mrv0541 11241408262D          

 27 30  0  0  0  0            999 V2000
   -2.0931    0.6875    0.0000 C   0  0  0  0  0  0  0  0  0  0  0  0
   -2.0943   -0.1398    0.0000 C   0  0  0  0  0  0  0  0  0  0  0  0
   -1.3794   -0.5527    0.0000 C   0  0  0  0  0  0  0  0  0  0  0  0
   -1.3812    1.1003    0.0000 C   0  0  0  0  0  0  0  0  0  0  0  0
    0.1254    0.9452    0.0000 N   0  0  0  0  0  0  0  0  0  0  0  0
   -0.6659    0.6912    0.0000 C   0  0  0  0  0  0  0  0  0  0  0  0
   -0.6677   -0.1406    0.0000 N   0  0  0  0  0  0  0  0  0  0  0  0
    0.1235   -0.3980    0.0000 C   0  0  0  0  0  0  0  0  0  0  0  0
    0.6115    0.2756    0.0000 C   0  0  0  0  0  0  0  0  0  0  0  0
   -2.8056    1.0997    0.0000 C   0  0  0  0  0  0  0  0  0  0  0  0
   -2.8044    1.9258    0.0000 C   0  0  0  0  0  0  0  0  0  0  0  0
   -3.5182    2.3381    0.0000 N   0  0  0  0  0  0  0  0  0  0  0  0
   -4.2335    1.9253    0.0000 C   0  0  0  0  0  0  0  0  0  0  0  0
   -4.2307    1.0961    0.0000 C   0  0  0  0  0  0  0  0  0  0  0  0
   -3.5163    0.6876    0.0000 C   0  0  0  0  0  0  0  0  0  0  0  0
   -1.3774   -1.3749    0.0000 C   0  0  0  0  0  0  0  0  0  0  0  0
   -2.0933   -1.7872    0.0000 N   0  0  0  0  0  0  0  0  0  0  0  0
   -2.0932   -2.6115    0.0000 C   0  0  0  0  0  0  0  0  0  0  0  0
   -1.3780   -3.0244    0.0000 C   0  0  0  0  0  0  0  0  0  0  0  0
   -0.6614   -2.6071    0.0000 C   0  0  0  0  0  0  0  0  0  0  0  0
   -0.6650   -1.7842    0.0000 N   0  0  0  0  0  0  0  0  0  0  0  0
    1.4365    0.2759    0.0000 N   0  0  0  0  0  0  0  0  0  0  0  0
    1.8487    0.9905    0.0000 C   0  0  0  0  0  0  0  0  0  0  0  0
    2.6737    0.9909    0.0000 N   0  0  0  0  0  0  0  0  0  0  0  0
    1.4359    1.7048    0.0000 O   0  0  0  0  0  0  0  0  0  0  0  0
    3.0865    0.2766    0.0000 C   0  0  0  0  0  0  0  0  0  0  0  0
    3.9115    0.2769    0.0000 C   0  0  0  0  0  0  0  0  0  0  0  0
  3  7  1  0  0  0  0
 13 14  2  0  0  0  0
  1  2  1  0  0  0  0
 14 15  1  0  0  0  0
 15 10  2  0  0  0  0
  1 10  1  0  0  0  0
  6  4  1  0  0  0  0
  5  6  2  0  0  0  0
 16 17  2  0  0  0  0
  7  8  1  0  0  0  0
 17 18  1  0  0  0  0
  8  9  2  0  0  0  0
 18 19  2  0  0  0  0
  9  5  1  0  0  0  0
 19 20  1  0  0  0  0
  4  1  2  0  0  0  0
 20 21  2  0  0  0  0
 21 16  1  0  0  0  0
  3 16  1  0  0  0  0
  6  7  1  0  0  0  0
  9 22  1  0  0  0  0
 10 11  1  0  0  0  0
 22 23  1  0  0  0  0
 23 24  1  0  0  0  0
 11 12  2  0  0  0  0
 23 25  2  0  0  0  0
  2  3  2  0  0  0  0
 24 26  1  0  0  0  0
 12 13  1  0  0  0  0
 26 27  1  0  0  0  0
M  END
> <From> 
www.bindingDB.org

> <BindingDB Reactant_set_id>
50904816

> <Ligand InChI>
InChI=1S/C19H17N7O/c1-2-21-19(27)25-16-12-26-15(18-22-7-4-8-23-18)9-14(10-17(26)24-16)13-5-3-6-20-11-13/h3-12H,2H2,1H3,(H2,21,25,27)

> <Ligand InChI Key>
CXWZHSNLXAJYMQ-UHFFFAOYSA-N

> <BindingDB MonomerID>
50378425

> <BindingDB Ligand Name>
CHEMBL565765

> <Target Name Assigned by Curator or DataSource>
DNA gyrase subunit B

> <Target Source Organism According to Curator or DataSource>
Streptococcus pneumoniae

> <Ki (nM)>


> <IC50 (nM)>
 48

> <Kd (nM)>


> <EC50 (nM)>


> <kon (M-1-s-1)>


> <koff (s-1)>


> <pH>


> <Temp C>


> <Curation/DataSource>
ChEMBL

> <Article DOI>
10.1016/j.bmcl.2009.07.141

> <PMID>
19683922

> <PubChem AID>


> <Patent Number>


> <Authors>
Starr, JT; Sciotti, RJ; Hanna, DL; Huband, MD; Mullins, LM; Cai, H; Gage, JW; Lockard, M; Rauckhorst, MR; Owen, RM; Lall, MS; Tomilo, M; Chen, H; McCurdy, SP; Barbachyn, MR

> <Institution>
Pfizer Inc.

> <Link to Ligand in BindingDB>
http://www.bindingdb.org/bind/chemsearch/marvin/MolStructure.jsp?monomerid=50378425

> <Link to Ligand-Target Pair in BindingDB>
http://www.bindingdb.org/jsp/dbsearch/PrimarySearch_ki.jsp?energyterm=kJ/mole&tag=pol&polymerid=50005944&target=DNA+gyrase+subunit+B&column=ki&startPg=0&Increment=50&submit=Search

> <Link to Ligand-Target Pair in BindingDB>
http://www.bindingdb.org/jsp/dbsearch/PrimarySearch_ki.jsp?energyterm=kJ/mole&tag=r21&monomerid=50378425&enzyme=DNA+gyrase+subunit+B&column=ki&startPg=0&Increment=50&submit=Search

> <Ligand HET ID in PDB>


> <PDB ID(s) for Ligand-Target Complex>


> <PubChem CID>
45484835

> <PubChem SID>
160857508

> <ChEBI ID of Ligand>


> <ChEMBL ID of Ligand>
CHEMBL565765

> <DrugBank ID of Ligand>


> <IUPHAR_GRAC ID of Ligand>


> <KEGG ID of Ligand>


> <ZINC ID of Ligand>
ZINC45245072

> <Number of Protein Chains in Target (>1 implies a multichain complex)>
1

> <BindingDB Target Chain Sequence>
MTEEIKNLQAQDYDASQIQVLEGLEAVRMRPGMYIGSTSKEGLHHLVWEIVDNSIDEALAGFASHIQVFIEPDDSITVVDDGRGIPVDIQEKTGRPAVETVFTVLHAGGKFGGGGYKVSGGLHGVGSSVVNALSTQLDVHVHKNGKIHYQEYRRGHVVADLEIVGDTDKTGTTVHFTPDPKIFTETTIFDFDKLNKRIQELAFLNRGLQISITDKRQGLEQTKHYHYEGGIASYVEYINENKDVIFDTPIYTDGEMDDITVEVAMQYTTGYHENVMSFANNIHTHEGGTHEQGFRTALTRVINDYARKNKLLKDNEDNLTGEDVREGLTAVISVKHPNPQFEGQTKTKLGNSEVVKITNRLFSEAFSDFLMENPQIAKRIVEKGILAAKARVAAKRAREVTRKKSGLEISNLPGKLADCSSNNPAETELFIVEGDSAGGSAKSGRNREFQAILPIRGKILNVEKASMDKILANEEIRSLFTAMGTGFGAEFDVSKARYQKLVLMTDADVDGAHIRTLLLTLIYRYMKPILEAGYVYIAQPPIYGVKVGSEIKEYIQPGADQEIKLQEALARYSEGRTKPTIQRYKGLGEMDDHQLWETTMDPEHRLMARVSVDDAAEADKIFDMLMGDRVEPRREFIEENAVYSTLDV

> <PDB ID(s) of Target Chain>
4Z2C,4Z2D,4Z2E

> <UniProt (SwissProt) Recommended Name of Target Chain>
DNA gyrase subunit B

> <UniProt (SwissProt) Entry Name of Target Chain>
GYRB_STRPN

> <UniProt (SwissProt) Primary ID of Target Chain>
P0A4L9

> <UniProt (SwissProt) Secondary ID(s) of Target Chain>
P48373

> <UniProt (SwissProt) Alternative ID(s) of Target Chain>


> <UniProt (TrEMBL) Submitted Name of Target Chain>


> <UniProt (TrEMBL) Entry Name of Target Chain>


> <UniProt (TrEMBL) Primary ID of Target Chain>


> <UniProt (TrEMBL) Secondary ID(s) of Target Chain>


> <UniProt (TrEMBL) Alternative ID(s) of Target Chain>


$$$$

  Mrv0541 11231413392D          

 42 46  0  0  0  0            999 V2000
   12.7726   -6.5766    0.0000 C   0  0  0  0  0  0  0  0  0  0  0  0
   12.0466   -6.1751    0.0000 C   0  0  1  0  0  0  0  0  0  0  0  0
   11.3399   -6.6006    0.0000 C   0  0  2  0  0  0  0  0  0  0  0  0
   11.3528   -7.4294    0.0000 C   0  0  2  0  0  0  0  0  0  0  0  0
   12.0788   -7.8310    0.0000 C   0  0  1  0  0  0  0  0  0  0  0  0
   12.7918   -7.4037    0.0000 O   0  0  0  0  0  0  0  0  0  0  0  0
   12.0931   -8.6559    0.0000 O   0  0  0  0  0  0  0  0  0  0  0  0
   12.8128   -9.0672    0.0000 C   0  0  0  0  0  0  0  0  0  0  0  0
   12.8120   -9.8917    0.0000 C   0  0  0  0  0  0  0  0  0  0  0  0
   13.5277   -8.6530    0.0000 C   0  0  0  0  0  0  0  0  0  0  0  0
   14.2421   -9.0706    0.0000 C   0  0  0  0  0  0  0  0  0  0  0  0
   14.2402   -9.8953    0.0000 C   0  0  0  0  0  0  0  0  0  0  0  0
   13.5250  -10.3069    0.0000 C   0  0  0  0  0  0  0  0  0  0  0  0
   13.5238  -11.1275    0.0000 O   0  0  0  0  0  0  0  0  0  0  0  0
   14.2362  -11.5428    0.0000 C   0  0  0  0  0  0  0  0  0  0  0  0
   14.9514  -11.1313    0.0000 C   0  0  0  0  0  0  0  0  0  0  0  0
   14.9543  -10.3045    0.0000 C   0  0  0  0  0  0  0  0  0  0  0  0
   15.6688   -9.8920    0.0000 O   0  0  0  0  0  0  0  0  0  0  0  0
   14.2337  -12.3678    0.0000 O   0  0  0  0  0  0  0  0  0  0  0  0
   15.6648  -11.5456    0.0000 N   0  0  0  0  0  0  0  0  0  0  0  0
   15.6627  -12.3706    0.0000 C   0  0  0  0  0  0  0  0  0  0  0  0
   14.9473  -12.7813    0.0000 O   0  0  0  0  0  0  0  0  0  0  0  0
   16.3762  -12.7848    0.0000 C   0  0  0  0  0  0  0  0  0  0  0  0
   16.3712  -13.6091    0.0000 C   0  0  0  0  0  0  0  0  0  0  0  0
   17.0838  -14.0232    0.0000 C   0  0  0  0  0  0  0  0  0  0  0  0
   17.8004  -13.6125    0.0000 C   0  0  0  0  0  0  0  0  0  0  0  0
   17.7998  -12.7832    0.0000 C   0  0  0  0  0  0  0  0  0  0  0  0
   17.0866  -12.3728    0.0000 C   0  0  0  0  0  0  0  0  0  0  0  0
   13.6002   -6.5577    0.0000 C   0  0  0  0  0  0  0  0  0  0  0  0
   12.7617   -5.7535    0.0000 C   0  0  0  0  0  0  0  0  0  0  0  0
   12.0316   -5.3502    0.0000 O   0  0  0  0  0  0  0  0  0  0  0  0
   12.7383   -4.9247    0.0000 C   0  0  0  0  0  0  0  0  0  0  0  0
   10.6185   -6.2003    0.0000 O   0  0  0  0  0  0  0  0  0  0  0  0
   10.6046   -5.3754    0.0000 C   0  0  0  0  0  0  0  0  0  0  0  0
    9.8835   -4.9748    0.0000 C   0  0  0  0  0  0  0  0  0  0  0  0
   11.3120   -4.9508    0.0000 O   0  0  0  0  0  0  0  0  0  0  0  0
   10.6455   -7.8540    0.0000 O   0  0  0  0  0  0  0  0  0  0  0  0
    9.6477   -4.1812    0.0000 C   0  0  0  0  0  0  0  0  0  0  0  0
    8.8230   -4.1581    0.0000 C   0  0  0  0  0  0  0  0  0  0  0  0
    8.5463   -4.9353    0.0000 C   0  0  0  0  0  0  0  0  0  0  0  0
    9.1999   -5.4387    0.0000 N   0  0  0  0  0  0  0  0  0  0  0  0
    7.8283   -5.3396    0.0000 C   0  0  0  0  0  0  0  0  0  0  0  0
 16 20  1  0  0  0  0
  8 10  2  0  0  0  0
 20 21  1  0  0  0  0
  9 13  2  0  0  0  0
 21 22  2  0  0  0  0
 11 10  1  0  0  0  0
 21 23  1  0  0  0  0
 11 12  2  0  0  0  0
 23 24  2  0  0  0  0
  3  4  1  0  0  0  0
 24 25  1  0  0  0  0
 12 13  1  0  0  0  0
 25 26  2  0  0  0  0
  4  5  1  0  0  0  0
 26 27  1  0  0  0  0
  5  6  1  0  0  0  0
 27 28  2  0  0  0  0
 28 23  1  0  0  0  0
  1 29  1  0  0  0  0
  5  7  1  1  0  0  0
  1 30  1  0  0  0  0
  2  1  1  0  0  0  0
  2 31  1  1  0  0  0
  7  8  1  0  0  0  0
 31 32  1  0  0  0  0
 12 17  1  0  0  0  0
  3 33  1  6  0  0  0
 13 14  1  0  0  0  0
 33 34  1  0  0  0  0
 14 15  1  0  0  0  0
 34 35  1  0  0  0  0
 15 16  1  0  0  0  0
 34 36  2  0  0  0  0
 16 17  2  0  0  0  0
  4 37  1  6  0  0  0
 35 38  2  0  0  0  0
  8  9  1  0  0  0  0
 17 18  1  0  0  0  0
  1  6  1  0  0  0  0
 15 19  2  0  0  0  0
 38 39  1  0  0  0  0
 39 40  2  0  0  0  0
 40 41  1  0  0  0  0
 41 35  1  0  0  0  0
  3  2  1  0  0  0  0
 40 42  1  0  0  0  0
M  END
> <From> 
www.bindingDB.org

> <BindingDB Reactant_set_id>
50607697

> <Ligand InChI>
InChI=1S/C30H30N2O10/c1-15-10-13-19(31-15)27(36)41-24-23(34)29(42-30(2,3)25(24)38-4)39-17-11-12-18-20(14-17)40-28(37)21(22(18)33)32-26(35)16-8-6-5-7-9-16/h5-14,23-25,29,31,33-34H,1-4H3,(H,32,35)/t23-,24+,25-,29-/m1/s1

> <Ligand InChI Key>
QTCIMIHKLNNPCT-MNGFJMBLSA-N

> <BindingDB MonomerID>
50330304

> <BindingDB Ligand Name>
(3R,4S,5R,6R)-6-(3-benzamido-4-hydroxy-2-oxo-2H-chromen-7-yloxy)-5-hydroxy-3-methoxy-2,2-dimethyltetrahydro-2H-pyran-4-yl 5-methyl-1H-pyrrole-2-carboxylate::CHEMBL1275889

> <Target Name Assigned by Curator or DataSource>
DNA Gyrase Subunit B

> <Target Source Organism According to Curator or DataSource>
Escherichia coli

> <Ki (nM)>


> <IC50 (nM)>
 50

> <Kd (nM)>


> <EC50 (nM)>


> <kon (M-1-s-1)>


> <koff (s-1)>


> <pH>


> <Temp C>


> <Curation/DataSource>
ChEMBL

> <Article DOI>
10.1128/AAC.01235-07

> <PMID>
18347114

> <PubChem AID>


> <Patent Number>


> <Authors>
Anderle, C; Stieger, M; Burrell, M; Reinelt, S; Maxwell, A; Page, M; Heide, L

> <Institution>
Universit&#228;t T&#252;bingen

> <Link to Ligand in BindingDB>
http://www.bindingdb.org/bind/chemsearch/marvin/MolStructure.jsp?monomerid=50330304

> <Link to Ligand-Target Pair in BindingDB>
http://www.bindingdb.org/jsp/dbsearch/PrimarySearch_ki.jsp?energyterm=kJ/mole&tag=pol&polymerid=2630&target=DNA+Gyrase+Subunit+B&column=ki&startPg=0&Increment=50&submit=Search

> <Link to Ligand-Target Pair in BindingDB>
http://www.bindingdb.org/jsp/dbsearch/PrimarySearch_ki.jsp?energyterm=kJ/mole&tag=r21&monomerid=50330304&enzyme=DNA+Gyrase+Subunit+B&column=ki&startPg=0&Increment=50&submit=Search

> <Ligand HET ID in PDB>


> <PDB ID(s) for Ligand-Target Complex>


> <PubChem CID>
54729437

> <PubChem SID>
123109419

> <ChEBI ID of Ligand>


> <ChEMBL ID of Ligand>
CHEMBL1275889

> <DrugBank ID of Ligand>


> <IUPHAR_GRAC ID of Ligand>


> <KEGG ID of Ligand>


> <ZINC ID of Ligand>
ZINC64454180

> <Number of Protein Chains in Target (>1 implies a multichain complex)>
1

> <BindingDB Target Chain Sequence>
MSNSYDSSSIKVLKGLDAVRKRPGMYIGDTDDGTGLHHMVFEVVDNAIDEALAGHCKEII
VTIHADNSVSVQDDGRGIPTGIHPEEGVSAAEVIMTVLHAGGKFDDNSYKVSGGLHGVGV
SVVNALSQKLELVIQREGKIHRQIYEHGVPQAPLAVTGETEKTGTMVRFWPSLETFTNVT
EFEYEILAKRLRELSFLNSGVSIRLRDKRDGKEDHFHYEGGIKAFVEYLNKNKTPIHPNI
FYFSTEKDGIGVEVALQWNDGFQENIYCFTNNIPQRDGGTHLAGFRAAMTRTLNAYMDKE
GYSKKAKVSATGDDAREGLIAVVSVKVPDPKFSSQTKDKLVSSEVKSAVEQQMNELLAEY
LLENPTDAKIVVGKIIDAARAREAARRAREMTRRKGALDLAGLPGKLADCQERDPALSEL
YLVEGDSAGGSAKQGRNRKNQAILPLKGKILNVEKARFDKMLSSQEVATLITALGCGIGR
DEYNPDKLRYHSIIIMTDADVDGSHIRTLLLTFFYRQMPEIVERGHVYIAQPPLYKVKKG
KQEQYIKDDEAMDQYQISIALDGATLHTNASAPALAGEALEKLVSEYNATQKMINRMERR
YPKAMLKELIYQPTLTEADLSDEQTVTRWVNALVSELNDKEQHGSQWKFDVHTNAEQNLF
EPIVRVRTHGVDTDYPLDHEFITGGEYRRICTLGEKLRGLLEEDAFIERGERRQPVASFE
QALDWLVKESRRGLSIQRYKGLGEMNPEQLWETTMDPESRRMLRVTVKDAIAADQLFTTL
MGDAVEPRRAFIEENALKAANIDI

> <PDB ID(s) of Target Chain>
1KZN,3G7E,3NUH,4DUH,4HYP,4KFG,4PRV,4PRX,4PU9,4WUB,4WUC,4WUD,4XTJ,4ZVI,5L3J,5MMN,5MMO,5MMP,5Z4H,5Z4O,5Z9B,5Z9E,5Z9F,5Z9L,5Z9M,5Z9N,5Z9Q,6ENG,6F86,6F8J,6F94,6F96

> <UniProt (SwissProt) Recommended Name of Target Chain>
DNA gyrase subunit B

> <UniProt (SwissProt) Entry Name of Target Chain>
GYRB_ECOLI

> <UniProt (SwissProt) Primary ID of Target Chain>
P0AES6

> <UniProt (SwissProt) Secondary ID(s) of Target Chain>
O08438,P06982,Q2M811

> <UniProt (SwissProt) Alternative ID(s) of Target Chain>


> <UniProt (TrEMBL) Submitted Name of Target Chain>


> <UniProt (TrEMBL) Entry Name of Target Chain>


> <UniProt (TrEMBL) Primary ID of Target Chain>


> <UniProt (TrEMBL) Secondary ID(s) of Target Chain>


> <UniProt (TrEMBL) Alternative ID(s) of Target Chain>


$$$$

  Mrv0541 11241420052D          

 28 30  0  0  0  0            999 V2000
    3.0693  -18.2540    0.0000 C   0  0  0  0  0  0  0  0  0  0  0  0
    3.0682  -19.0813    0.0000 C   0  0  0  0  0  0  0  0  0  0  0  0
    3.7830  -19.4942    0.0000 N   0  0  0  0  0  0  0  0  0  0  0  0
    3.7812  -17.8412    0.0000 C   0  0  0  0  0  0  0  0  0  0  0  0
    2.3548  -17.8416    0.0000 C   0  0  0  0  0  0  0  0  0  0  0  0
    2.3581  -17.0157    0.0000 C   0  0  0  0  0  0  0  0  0  0  0  0
    1.6443  -16.6034    0.0000 N   0  0  0  0  0  0  0  0  0  0  0  0
    0.9290  -17.0162    0.0000 C   0  0  0  0  0  0  0  0  0  0  0  0
    0.9318  -17.8454    0.0000 C   0  0  0  0  0  0  0  0  0  0  0  0
    1.6462  -18.2539    0.0000 C   0  0  0  0  0  0  0  0  0  0  0  0
    4.4966  -18.2503    0.0000 C   0  0  0  0  0  0  0  0  0  0  0  0
    4.4968  -19.0813    0.0000 C   0  0  0  0  0  0  0  0  0  0  0  0
    5.2873  -19.3379    0.0000 S   0  0  0  0  0  0  0  0  0  0  0  0
    5.7756  -18.6655    0.0000 C   0  0  0  0  0  0  0  0  0  0  0  0
    5.2869  -17.9933    0.0000 N   0  0  0  0  0  0  0  0  0  0  0  0
    6.6006  -18.6652    0.0000 N   0  0  0  0  0  0  0  0  0  0  0  0
    7.0129  -17.9505    0.0000 C   0  0  0  0  0  0  0  0  0  0  0  0
    7.8379  -17.9502    0.0000 O   0  0  0  0  0  0  0  0  0  0  0  0
    6.6001  -17.2363    0.0000 N   0  0  0  0  0  0  0  0  0  0  0  0
    7.0124  -16.5216    0.0000 C   0  0  0  0  0  0  0  0  0  0  0  0
    6.5996  -15.8072    0.0000 C   0  0  0  0  0  0  0  0  0  0  0  0
    2.3535  -19.4932    0.0000 O   0  0  0  0  0  0  0  0  0  0  0  0
    3.7833  -20.3191    0.0000 C   0  0  0  0  0  0  0  0  0  0  0  0
    3.0689  -20.7318    0.0000 C   0  0  0  0  0  0  0  0  0  0  0  0
    3.0691  -21.5568    0.0000 C   0  0  0  0  0  0  0  0  0  0  0  0
    2.3548  -21.9695    0.0000 C   0  0  0  0  0  0  0  0  0  0  0  0
    3.7837  -21.9691    0.0000 C   0  0  0  0  0  0  0  0  0  0  0  0
    7.0119  -15.0927    0.0000 C   0  0  0  0  0  0  0  0  0  0  0  0
  1  2  1  0  0  0  0
  2  3  1  0  0  0  0
  3 12  1  0  0  0  0
 11  4  1  0  0  0  0
  4  1  2  0  0  0  0
  1  5  1  0  0  0  0
  5  6  2  0  0  0  0
  6  7  1  0  0  0  0
  7  8  2  0  0  0  0
  8  9  1  0  0  0  0
  9 10  2  0  0  0  0
 10  5  1  0  0  0  0
 11 12  2  0  0  0  0
 12 13  1  0  0  0  0
 13 14  1  0  0  0  0
 14 15  2  0  0  0  0
 15 11  1  0  0  0  0
 14 16  1  0  0  0  0
 16 17  1  0  0  0  0
 17 18  2  0  0  0  0
 17 19  1  0  0  0  0
 19 20  1  0  0  0  0
 20 21  1  0  0  0  0
  2 22  2  0  0  0  0
  3 23  1  0  0  0  0
 23 24  1  0  0  0  0
 24 25  1  0  0  0  0
 25 26  1  0  0  0  0
 25 27  1  0  0  0  0
 21 28  2  0  0  0  0
M  END
> <From> 
www.bindingDB.org

> <BindingDB Reactant_set_id>
51091626

> <Ligand InChI>
InChI=1S/C20H23N5O2S/c1-4-8-22-19(27)24-20-23-16-11-15(14-6-5-9-21-12-14)17(26)25(18(16)28-20)10-7-13(2)3/h4-6,9,11-13H,1,7-8,10H2,2-3H3,(H2,22,23,24,27)

> <Ligand InChI Key>
HDSYKPYXRVXIRI-UHFFFAOYSA-N

> <BindingDB MonomerID>
50447314

> <BindingDB Ligand Name>
CHEMBL3114220

> <Target Name Assigned by Curator or DataSource>
DNA gyrase subunit B

> <Target Source Organism According to Curator or DataSource>


> <Ki (nM)>


> <IC50 (nM)>
 50

> <Kd (nM)>


> <EC50 (nM)>


> <kon (M-1-s-1)>


> <koff (s-1)>


> <pH>


> <Temp C>


> <Curation/DataSource>
ChEMBL

> <Article DOI>
10.1016/j.bmcl.2013.12.080

> <PMID>
24405701

> <PubChem AID>


> <Patent Number>


> <Authors>
Kale, RR; Kale, MG; Waterson, D; Raichurkar, A; Hameed, SP; Manjunatha, MR; Kishore Reddy, BK; Malolanarasimhan, K; Shinde, V; Koushik, K; Jena, LK; Menasinakai, S; Humnabadkar, V; Madhavapeddi, P; Basavarajappa, H; Sharma, S; Nandishaiah, R; Mahesh Kumar, KN; Ganguly, S; Ahuja, V; Gaonkar, S; Naveen Kumar, CN; Ogg, D; Boriack-Sjodin, PA; Sambandamurthy, VK; de Sousa, SM; Ghorpade, SR

> <Institution>
AstraZeneca

> <Link to Ligand in BindingDB>
http://www.bindingdb.org/bind/chemsearch/marvin/MolStructure.jsp?monomerid=50447314

> <Link to Ligand-Target Pair in BindingDB>
http://www.bindingdb.org/jsp/dbsearch/PrimarySearch_ki.jsp?energyterm=kJ/mole&tag=pol&polymerid=50006452&target=DNA+gyrase+subunit+B&column=ki&startPg=0&Increment=50&submit=Search

> <Link to Ligand-Target Pair in BindingDB>
http://www.bindingdb.org/jsp/dbsearch/PrimarySearch_ki.jsp?energyterm=kJ/mole&tag=r21&monomerid=50447314&enzyme=DNA+gyrase+subunit+B&column=ki&startPg=0&Increment=50&submit=Search

> <Ligand HET ID in PDB>
2B7

> <PDB ID(s) for Ligand-Target Complex>
4MOT

> <PubChem CID>
71816193

> <PubChem SID>
194945210

> <ChEBI ID of Ligand>


> <ChEMBL ID of Ligand>
CHEMBL3114220

> <DrugBank ID of Ligand>


> <IUPHAR_GRAC ID of Ligand>


> <KEGG ID of Ligand>


> <ZINC ID of Ligand>


> <Number of Protein Chains in Target (>1 implies a multichain complex)>
1

> <BindingDB Target Chain Sequence>
MAAQKNNAPKEYGADSITILEGLEAVRKRPGMYIGSTGERGLHHLIWEVVDNAVDEAMAGFATRVDVKIHADGSVEVRDDGRGIPVEMHATGMPTIDVVMTQLHAGGKFDGETYAVSGGLHGVGVSVVNALSTRLEATVLRDGYEWFQYYDRSVPGKLKQGGETKETGTTIRFWADPEIFETTDYNFETVARRLQEMAFLNKGLTIELTDERVTAEEVVDDVVKDTAEAPKTADEKAAEATGPSKVKHRVFHYPGGLVDYVKHINRTKTPIQQSIIDFDGKGPGHEVEIAMQWNAGYSESVHTFANTINTHEGGTHEEGFRAALTSVVNRYAKDKKLLKDKDPNLTGDDIREGLAAVISVKVAEPQFEGQTKTKLGNTEVKSFVQKICNEQLQHWFEANPAEAKTVVNKAVSSAQARIAARKARELVRRKSATDIGGLPGKLADCRSTDPSKSELYVVEGDSAGGSAKSGRDSMFQAILPLRGKIINVEKARIDRVLKNTEVQSIITALGTGIHDEFDISKLRYHKIVLMADADVDGQHISTLLLTLLFRFMKPLVENGHIFLAQPPLYKLKWQRSEPEFAYSDRERDGLLEAGRAAGKKINVDDGIQRYKGLGEMDAKELWETTMDPSVRVLRQVTLDDAAAADELFSILMGEDVEARRSFITRNAKDVRFLDV

> <PDB ID(s) of Target Chain>
4BAE

> <UniProt (SwissProt) Recommended Name of Target Chain>
DNA gyrase subunit B

> <UniProt (SwissProt) Entry Name of Target Chain>
GYRB_MYCSM

> <UniProt (SwissProt) Primary ID of Target Chain>
P0C559

> <UniProt (SwissProt) Secondary ID(s) of Target Chain>
P48355,Q59555

> <UniProt (SwissProt) Alternative ID(s) of Target Chain>


> <UniProt (TrEMBL) Submitted Name of Target Chain>


> <UniProt (TrEMBL) Entry Name of Target Chain>


> <UniProt (TrEMBL) Primary ID of Target Chain>


> <UniProt (TrEMBL) Secondary ID(s) of Target Chain>


> <UniProt (TrEMBL) Alternative ID(s) of Target Chain>


$$$$

  Mrv0541 11231422262D          

 27 29  0  0  0  0            999 V2000
    2.8264   -8.7482    0.0000 N   0  0  0  0  0  0  0  0  0  0  0  0
    2.1531   -8.2614    0.0000 C   0  0  0  0  0  0  0  0  0  0  0  0
    2.4098   -7.4734    0.0000 C   0  0  0  0  0  0  0  0  0  0  0  0
    3.2386   -7.4734    0.0000 C   0  0  0  0  0  0  0  0  0  0  0  0
    3.4952   -8.2619    0.0000 C   0  0  0  0  0  0  0  0  0  0  0  0
    1.3687   -8.5171    0.0000 C   0  0  0  0  0  0  0  0  0  0  0  0
    4.2121   -8.6702    0.0000 C   0  0  0  0  0  0  0  0  0  0  0  0
    4.2169   -9.4952    0.0000 O   0  0  0  0  0  0  0  0  0  0  0  0
    4.9238   -8.2536    0.0000 N   0  0  0  0  0  0  0  0  0  0  0  0
    5.6407   -8.6619    0.0000 C   0  0  0  0  0  0  0  0  0  0  0  0
    5.6419   -9.4890    0.0000 C   0  0  0  0  0  0  0  0  0  0  0  0
    6.3543   -9.8969    0.0000 C   0  0  0  0  0  0  0  0  0  0  0  0
    7.0688   -9.4840    0.0000 N   0  0  0  0  0  0  0  0  0  0  0  0
    7.0660   -8.6580    0.0000 C   0  0  0  0  0  0  0  0  0  0  0  0
    6.3486   -8.2453    0.0000 C   0  0  0  0  0  0  0  0  0  0  0  0
    7.7844   -9.8946    0.0000 C   0  0  0  0  0  0  0  0  0  0  0  0
    1.9251   -6.8058    0.0000 Cl  0  0  0  0  0  0  0  0  0  0  0  0
    3.7234   -6.8059    0.0000 Cl  0  0  0  0  0  0  0  0  0  0  0  0
    8.0467  -10.6764    0.0000 S   0  0  0  0  0  0  0  0  0  0  0  0
    8.8716  -10.6694    0.0000 C   0  0  0  0  0  0  0  0  0  0  0  0
    9.1199   -9.8824    0.0000 C   0  0  0  0  0  0  0  0  0  0  0  0
    8.4482   -9.4037    0.0000 N   0  0  0  0  0  0  0  0  0  0  0  0
    9.2392  -11.4076    0.0000 C   0  0  0  0  0  0  0  0  0  0  0  0
    8.7834  -12.0953    0.0000 O   0  0  0  0  0  0  0  0  0  0  0  0
   10.0625  -11.4042    0.0000 N   0  0  0  0  0  0  0  0  0  0  0  0
   10.4780  -12.1169    0.0000 O   0  0  0  0  0  0  0  0  0  0  0  0
   11.3030  -12.1134    0.0000 C   0  0  0  0  0  0  0  0  0  0  0  0
 12 13  1  0  0  0  0
 13 14  1  0  0  0  0
 14 15  1  0  0  0  0
  1  2  1  0  0  0  0
 13 16  1  0  0  0  0
  7  8  2  0  0  0  0
  3 17  1  0  0  0  0
  3  4  1  0  0  0  0
  4 18  1  0  0  0  0
 16 19  1  0  0  0  0
  7  9  1  0  0  0  0
  4  5  2  0  0  0  0
  9 10  1  0  0  0  0
 10 11  1  0  0  0  0
 19 20  1  0  0  0  0
 20 21  2  0  0  0  0
 21 22  1  0  0  0  0
 22 16  2  0  0  0  0
  5  1  1  0  0  0  0
 20 23  1  0  0  0  0
  2  3  2  0  0  0  0
 23 24  2  0  0  0  0
  2  6  1  0  0  0  0
  5  7  1  0  0  0  0
 23 25  1  0  0  0  0
 10 15  1  0  0  0  0
 25 26  1  0  0  0  0
 11 12  1  0  0  0  0
 26 27  1  0  0  0  0
M  END
> <From> 
www.bindingDB.org

> <BindingDB Reactant_set_id>
50705128

> <Ligand InChI>
InChI=1S/C16H19Cl2N5O3S/c1-8-11(17)12(18)13(20-8)15(25)21-9-3-5-23(6-4-9)16-19-7-10(27-16)14(24)22-26-2/h7,9,20H,3-6H2,1-2H3,(H,21,25)(H,22,24)

> <Ligand InChI Key>
NWUZSGXKAFYGPZ-UHFFFAOYSA-N

> <BindingDB MonomerID>
50358850

> <BindingDB Ligand Name>
CHEMBL1923435

> <Target Name Assigned by Curator or DataSource>
DNA Gyrase Subunit B

> <Target Source Organism According to Curator or DataSource>
Staphylococcus aureus

> <Ki (nM)>


> <IC50 (nM)>
 50

> <Kd (nM)>


> <EC50 (nM)>


> <kon (M-1-s-1)>


> <koff (s-1)>


> <pH>


> <Temp C>


> <Curation/DataSource>
ChEMBL

> <Article DOI>
10.1016/j.bmcl.2011.10.010

> <PMID>
22041057

> <PubChem AID>


> <Patent Number>


> <Authors>
Sherer, BA; Hull, K; Green, O; Basarab, G; Hauck, S; Hill, P; Loch, JT; Mullen, G; Bist, S; Bryant, J; Boriack-Sjodin, A; Read, J; DeGrace, N; Uria-Nickelsen, M; Illingworth, RN; Eakin, AE

> <Institution>
AstraZeneca R&amp;D Boston

> <Link to Ligand in BindingDB>
http://www.bindingdb.org/bind/chemsearch/marvin/MolStructure.jsp?monomerid=50358850

> <Link to Ligand-Target Pair in BindingDB>
http://www.bindingdb.org/jsp/dbsearch/PrimarySearch_ki.jsp?energyterm=kJ/mole&tag=pol&polymerid=2626&target=DNA+Gyrase+Subunit+B&column=ki&startPg=0&Increment=50&submit=Search

> <Link to Ligand-Target Pair in BindingDB>
http://www.bindingdb.org/jsp/dbsearch/PrimarySearch_ki.jsp?energyterm=kJ/mole&tag=r21&monomerid=50358850&enzyme=DNA+Gyrase+Subunit+B&column=ki&startPg=0&Increment=50&submit=Search

> <Ligand HET ID in PDB>


> <PDB ID(s) for Ligand-Target Complex>


> <PubChem CID>
57397810

> <PubChem SID>
136962874

> <ChEBI ID of Ligand>


> <ChEMBL ID of Ligand>
CHEMBL1923435

> <DrugBank ID of Ligand>


> <IUPHAR_GRAC ID of Ligand>


> <KEGG ID of Ligand>


> <ZINC ID of Ligand>
ZINC73196433

> <Number of Protein Chains in Target (>1 implies a multichain complex)>
1

> <BindingDB Target Chain Sequence>
MVTALSDVNNTDNYGAGQIQVLEGLEAVRKRPGMYIGSTSERGLHHLVWEIVDNSIDEALAGYANQIEVVIEKDNWIKVTDNGRGIPVDIQEKMGRPAVEVILTVLHAGGKFGGGGYKVSGGLHGVGSSVVNALSQDLEVYVHRNETIYHQAYKKGVPQFDLKEVGTTDKTGTVIRFKADGEIFTETTVYNYETLQQRIRELAFLNKGIQITLRDERDEENVREDSYHYEGGIKSYVELLNENKEPIHDEPIYIHQSKDDIEVEIAIQYNSGYATNLLTYANNIHTYEGGTHEDGFKRALTRVLNSYGLSSKIMKEEKDRLSGEDTREGMTAIISIKHGDPQFEGQTKTKLGNSEVRQVVDKLFSEHFERFLYENPQVARTVVEKGIMAARARVAAKKAREVTRRKSALDVASLPGKLADCSSKSPEECEIFLVEGDSAGGSTKSGRDSRTQAILPLRGKILNVEKARLDRILNNNEIRQMITAFGTGIGGDFDLAKARYHKIVIMTDADVDGAHIRTLLLTFFYRFMRPLIEAGYVYIAQPPLYKLTQGKQKYYVYNDRELDKLKSELNPTPKWSIARYKGLGEMNADQLWETTMNPEHRALLQVKLEDAIEADQTFEMLMGDVVENRRQFIEDNAVYANLDF

> <PDB ID(s) of Target Chain>


> <UniProt (SwissProt) Recommended Name of Target Chain>
DNA gyrase subunit B

> <UniProt (SwissProt) Entry Name of Target Chain>
GYRB_STAAU

> <UniProt (SwissProt) Primary ID of Target Chain>
P0A0K8

> <UniProt (SwissProt) Secondary ID(s) of Target Chain>
P20832

> <UniProt (SwissProt) Alternative ID(s) of Target Chain>


> <UniProt (TrEMBL) Submitted Name of Target Chain>


> <UniProt (TrEMBL) Entry Name of Target Chain>


> <UniProt (TrEMBL) Primary ID of Target Chain>


> <UniProt (TrEMBL) Secondary ID(s) of Target Chain>


> <UniProt (TrEMBL) Alternative ID(s) of Target Chain>


$$$$

  SciTegic12201612272D

 22 25  0  0  0  0            999 V2000
    0.2917   -0.7475    0.0000 C   0  0
    0.2917    0.7475    0.0000 C   0  0
   -1.0028    1.5132    0.0000 C   0  0
   -2.3155    0.7475    0.0000 C   0  0
   -2.3155   -0.7475    0.0000 C   0  0
   -1.0028   -1.5132    0.0000 N   0  0
    2.5889    0.0182    0.0000 N   0  0
    1.7138   -1.2033    0.0000 N   0  0
    1.7138    1.2033    0.0000 C   0  0
   -3.3560   -1.3452    0.0000 O   0  0
    3.6243    2.9682    0.0000 S   0  0
    3.7308    4.4645    0.0000 C   0  0
    2.3406    5.0280    0.0000 N   0  0
    1.3751    3.8801    0.0000 C   0  0
    2.1749    2.6315    0.0000 C   0  0
    6.3724    4.6552    0.0000 C   0  0
    5.0044    5.2582    0.0000 C   0  0
    4.8363    6.7505    0.0000 C   0  0
    6.0460    7.6374    0.0000 C   0  0
    7.4189    7.0332    0.0000 C   0  0
    7.5821    5.5421    0.0000 N   0  0
   -0.9991   -2.7132    0.0000 C   0  0
  1  2  2  0
  2  3  1  0
  3  4  2  0
  4  5  1  0
  5  6  1  0
  1  6  1  0
  7  8  1  0
  7  9  2  0
  1  8  1  0
  2  9  1  0
  5 10  2  0
 11 12  1  0
 12 13  2  0
 13 14  1  0
 14 15  2  0
 11 15  1  0
 16 17  1  0
 17 18  2  0
 18 19  1  0
 19 20  2  0
 20 21  1  0
 16 21  2  0
 12 17  1  0
  9 15  1  0
  6 22  1  0
M  END
> <From> 
www.bindingDB.org

> <BindingDB Reactant_set_id>
50498700

> <Ligand InChI>
InChI=1S/C15H11N5OS/c1-20-12(21)5-4-10-13(18-19-14(10)20)11-8-17-15(22-11)9-3-2-6-16-7-9/h2-8H,1H3,(H,18,19)

> <Ligand InChI Key>
PFOGDCSCNOVGQE-UHFFFAOYSA-N

> <BindingDB MonomerID>
50173890

> <BindingDB Ligand Name>
CHEMBL3809061

> <Target Name Assigned by Curator or DataSource>
DNA gyrase

> <Target Source Organism According to Curator or DataSource>
Staphylococcus aureus

> <Ki (nM)>


> <IC50 (nM)>
 51

> <Kd (nM)>


> <EC50 (nM)>


> <kon (M-1-s-1)>


> <koff (s-1)>


> <pH>


> <Temp C>


> <Curation/DataSource>
ChEMBL

> <Article DOI>
10.1021/acsmedchemlett.5b00368

> <PMID>
27096044

> <PubChem AID>


> <Patent Number>


> <Authors>
Cross, JB; Zhang, J; Yang, Q; Mesleh, MF; Romero, JA; Wang, B; Bevan, D; Poutsiaka, KM; Epie, F; Moy, T; Daniel, A; Shotwell, J; Chamberlain, B; Carter, N; Andersen, O; Barker, J; Ryan, MD; Metcalf, CA; Silverman, J; Nguyen, K; Lippa, B; Dolle, RE

> <Institution>
Cubist Pharmaceuticals, Inc.

> <Link to Ligand in BindingDB>
http://www.bindingdb.org/bind/chemsearch/marvin/MolStructure.jsp?monomerid=50173890

> <Link to Ligand-Target Pair in BindingDB>
http://www.bindingdb.org/jsp/dbsearch/PrimarySearch_ki.jsp?energyterm=kJ/mole&tag=pol&polymerid=2626&target=DNA+gyrase&column=ki&startPg=0&Increment=50&submit=Search

> <Link to Ligand-Target Pair in BindingDB>
http://www.bindingdb.org/jsp/dbsearch/PrimarySearch_ki.jsp?energyterm=kJ/mole&tag=r21&monomerid=50173890&enzyme=DNA+gyrase&column=ki&startPg=0&Increment=50&submit=Search

> <Ligand HET ID in PDB>


> <PDB ID(s) for Ligand-Target Complex>


> <PubChem CID>
127044865

> <PubChem SID>
346548904

> <ChEBI ID of Ligand>


> <ChEMBL ID of Ligand>


> <DrugBank ID of Ligand>


> <IUPHAR_GRAC ID of Ligand>


> <KEGG ID of Ligand>


> <ZINC ID of Ligand>


> <Number of Protein Chains in Target (>1 implies a multichain complex)>
1

> <BindingDB Target Chain Sequence>
MVTALSDVNNTDNYGAGQIQVLEGLEAVRKRPGMYIGSTSERGLHHLVWEIVDNSIDEALAGYANQIEVVIEKDNWIKVTDNGRGIPVDIQEKMGRPAVEVILTVLHAGGKFGGGGYKVSGGLHGVGSSVVNALSQDLEVYVHRNETIYHQAYKKGVPQFDLKEVGTTDKTGTVIRFKADGEIFTETTVYNYETLQQRIRELAFLNKGIQITLRDERDEENVREDSYHYEGGIKSYVELLNENKEPIHDEPIYIHQSKDDIEVEIAIQYNSGYATNLLTYANNIHTYEGGTHEDGFKRALTRVLNSYGLSSKIMKEEKDRLSGEDTREGMTAIISIKHGDPQFEGQTKTKLGNSEVRQVVDKLFSEHFERFLYENPQVARTVVEKGIMAARARVAAKKAREVTRRKSALDVASLPGKLADCSSKSPEECEIFLVEGDSAGGSTKSGRDSRTQAILPLRGKILNVEKARLDRILNNNEIRQMITAFGTGIGGDFDLAKARYHKIVIMTDADVDGAHIRTLLLTFFYRFMRPLIEAGYVYIAQPPLYKLTQGKQKYYVYNDRELDKLKSELNPTPKWSIARYKGLGEMNADQLWETTMNPEHRALLQVKLEDAIEADQTFEMLMGDVVENRRQFIEDNAVYANLDF

> <PDB ID(s) of Target Chain>


> <UniProt (SwissProt) Recommended Name of Target Chain>
DNA gyrase subunit B

> <UniProt (SwissProt) Entry Name of Target Chain>
GYRB_STAAU

> <UniProt (SwissProt) Primary ID of Target Chain>
P0A0K8

> <UniProt (SwissProt) Secondary ID(s) of Target Chain>
P20832

> <UniProt (SwissProt) Alternative ID(s) of Target Chain>


> <UniProt (TrEMBL) Submitted Name of Target Chain>


> <UniProt (TrEMBL) Entry Name of Target Chain>


> <UniProt (TrEMBL) Primary ID of Target Chain>


> <UniProt (TrEMBL) Secondary ID(s) of Target Chain>


> <UniProt (TrEMBL) Alternative ID(s) of Target Chain>


$$$$

  Mrv0541 11241408262D          

 31 34  0  0  0  0            999 V2000
    9.4194   -0.1500    0.0000 C   0  0  0  0  0  0  0  0  0  0  0  0
    9.4182   -0.9773    0.0000 C   0  0  0  0  0  0  0  0  0  0  0  0
   10.1331   -1.3902    0.0000 C   0  0  0  0  0  0  0  0  0  0  0  0
   10.1313    0.2628    0.0000 C   0  0  0  0  0  0  0  0  0  0  0  0
   11.6379    0.1077    0.0000 N   0  0  0  0  0  0  0  0  0  0  0  0
   10.8466   -0.1463    0.0000 C   0  0  0  0  0  0  0  0  0  0  0  0
   10.8448   -0.9781    0.0000 N   0  0  0  0  0  0  0  0  0  0  0  0
   11.6360   -1.2355    0.0000 C   0  0  0  0  0  0  0  0  0  0  0  0
   12.1240   -0.5619    0.0000 C   0  0  0  0  0  0  0  0  0  0  0  0
    8.7069    0.2622    0.0000 C   0  0  0  0  0  0  0  0  0  0  0  0
    8.7081    1.0883    0.0000 C   0  0  0  0  0  0  0  0  0  0  0  0
    7.9944    1.5006    0.0000 C   0  0  0  0  0  0  0  0  0  0  0  0
    7.2790    1.0878    0.0000 N   0  0  0  0  0  0  0  0  0  0  0  0
   10.1351   -2.2124    0.0000 C   0  0  0  0  0  0  0  0  0  0  0  0
    9.4192   -2.6247    0.0000 N   0  0  0  0  0  0  0  0  0  0  0  0
    9.4193   -3.4490    0.0000 C   0  0  0  0  0  0  0  0  0  0  0  0
   10.1345   -3.8619    0.0000 C   0  0  0  0  0  0  0  0  0  0  0  0
   10.8511   -3.4446    0.0000 C   0  0  0  0  0  0  0  0  0  0  0  0
   10.8475   -2.6217    0.0000 N   0  0  0  0  0  0  0  0  0  0  0  0
   12.9490   -0.5616    0.0000 N   0  0  0  0  0  0  0  0  0  0  0  0
   13.3612    0.1530    0.0000 C   0  0  0  0  0  0  0  0  0  0  0  0
   12.9484    0.8673    0.0000 O   0  0  0  0  0  0  0  0  0  0  0  0
   14.1862    0.1534    0.0000 N   0  0  0  0  0  0  0  0  0  0  0  0
   14.5990   -0.5609    0.0000 C   0  0  0  0  0  0  0  0  0  0  0  0
   15.4240   -0.5606    0.0000 C   0  0  0  0  0  0  0  0  0  0  0  0
   10.1361   -4.6869    0.0000 C   0  0  0  0  0  0  0  0  0  0  0  0
    7.2787    0.2628    0.0000 C   0  0  0  0  0  0  0  0  0  0  0  0
    7.9931   -0.1499    0.0000 C   0  0  0  0  0  0  0  0  0  0  0  0
    7.9946    2.3256    0.0000 O   0  0  0  0  0  0  0  0  0  0  0  0
    6.5646    1.5006    0.0000 C   0  0  0  0  0  0  0  0  0  0  0  0
    5.8500    1.0883    0.0000 C   0  0  0  0  0  0  0  0  0  0  0  0
 14 15  2  0  0  0  0
  6  4  1  0  0  0  0
 15 16  1  0  0  0  0
  5  6  2  0  0  0  0
 16 17  2  0  0  0  0
  7  8  1  0  0  0  0
 17 18  1  0  0  0  0
  8  9  2  0  0  0  0
 18 19  2  0  0  0  0
 19 14  1  0  0  0  0
  3 14  1  0  0  0  0
  9  5  1  0  0  0  0
  9 20  1  0  0  0  0
  4  1  2  0  0  0  0
 20 21  1  0  0  0  0
  6  7  1  0  0  0  0
 21 22  2  0  0  0  0
 10 11  2  0  0  0  0
 21 23  1  0  0  0  0
 23 24  1  0  0  0  0
 11 12  1  0  0  0  0
 24 25  1  0  0  0  0
  2  3  2  0  0  0  0
 17 26  1  0  0  0  0
 12 13  1  0  0  0  0
 13 27  1  0  0  0  0
 28 10  1  0  0  0  0
 27 28  2  0  0  0  0
  1 10  1  0  0  0  0
 12 29  2  0  0  0  0
  3  7  1  0  0  0  0
 13 30  1  0  0  0  0
  1  2  1  0  0  0  0
 30 31  1  0  0  0  0
M  END
> <From> 
www.bindingDB.org

> <BindingDB Reactant_set_id>
50904806

> <Ligand InChI>
InChI=1S/C22H23N7O2/c1-4-23-22(31)27-18-13-29-17(21-24-11-14(3)12-25-21)8-16(9-19(29)26-18)15-6-7-28(5-2)20(30)10-15/h6-13H,4-5H2,1-3H3,(H2,23,27,31)

> <Ligand InChI Key>
QGUJQBAWWLBPDZ-UHFFFAOYSA-N

> <BindingDB MonomerID>
50378420

> <BindingDB Ligand Name>
CHEMBL565750

> <Target Name Assigned by Curator or DataSource>
DNA gyrase subunit B

> <Target Source Organism According to Curator or DataSource>
Streptococcus pneumoniae

> <Ki (nM)>


> <IC50 (nM)>
 51

> <Kd (nM)>


> <EC50 (nM)>


> <kon (M-1-s-1)>


> <koff (s-1)>


> <pH>


> <Temp C>


> <Curation/DataSource>
ChEMBL

> <Article DOI>
10.1016/j.bmcl.2009.07.141

> <PMID>
19683922

> <PubChem AID>


> <Patent Number>


> <Authors>
Starr, JT; Sciotti, RJ; Hanna, DL; Huband, MD; Mullins, LM; Cai, H; Gage, JW; Lockard, M; Rauckhorst, MR; Owen, RM; Lall, MS; Tomilo, M; Chen, H; McCurdy, SP; Barbachyn, MR

> <Institution>
Pfizer Inc.

> <Link to Ligand in BindingDB>
http://www.bindingdb.org/bind/chemsearch/marvin/MolStructure.jsp?monomerid=50378420

> <Link to Ligand-Target Pair in BindingDB>
http://www.bindingdb.org/jsp/dbsearch/PrimarySearch_ki.jsp?energyterm=kJ/mole&tag=pol&polymerid=50005944&target=DNA+gyrase+subunit+B&column=ki&startPg=0&Increment=50&submit=Search

> <Link to Ligand-Target Pair in BindingDB>
http://www.bindingdb.org/jsp/dbsearch/PrimarySearch_ki.jsp?energyterm=kJ/mole&tag=r21&monomerid=50378420&enzyme=DNA+gyrase+subunit+B&column=ki&startPg=0&Increment=50&submit=Search

> <Ligand HET ID in PDB>


> <PDB ID(s) for Ligand-Target Complex>


> <PubChem CID>
45484788

> <PubChem SID>
160857503

> <ChEBI ID of Ligand>


> <ChEMBL ID of Ligand>
CHEMBL565750

> <DrugBank ID of Ligand>


> <IUPHAR_GRAC ID of Ligand>


> <KEGG ID of Ligand>


> <ZINC ID of Ligand>
ZINC45253463

> <Number of Protein Chains in Target (>1 implies a multichain complex)>
1

> <BindingDB Target Chain Sequence>
MTEEIKNLQAQDYDASQIQVLEGLEAVRMRPGMYIGSTSKEGLHHLVWEIVDNSIDEALAGFASHIQVFIEPDDSITVVDDGRGIPVDIQEKTGRPAVETVFTVLHAGGKFGGGGYKVSGGLHGVGSSVVNALSTQLDVHVHKNGKIHYQEYRRGHVVADLEIVGDTDKTGTTVHFTPDPKIFTETTIFDFDKLNKRIQELAFLNRGLQISITDKRQGLEQTKHYHYEGGIASYVEYINENKDVIFDTPIYTDGEMDDITVEVAMQYTTGYHENVMSFANNIHTHEGGTHEQGFRTALTRVINDYARKNKLLKDNEDNLTGEDVREGLTAVISVKHPNPQFEGQTKTKLGNSEVVKITNRLFSEAFSDFLMENPQIAKRIVEKGILAAKARVAAKRAREVTRKKSGLEISNLPGKLADCSSNNPAETELFIVEGDSAGGSAKSGRNREFQAILPIRGKILNVEKASMDKILANEEIRSLFTAMGTGFGAEFDVSKARYQKLVLMTDADVDGAHIRTLLLTLIYRYMKPILEAGYVYIAQPPIYGVKVGSEIKEYIQPGADQEIKLQEALARYSEGRTKPTIQRYKGLGEMDDHQLWETTMDPEHRLMARVSVDDAAEADKIFDMLMGDRVEPRREFIEENAVYSTLDV

> <PDB ID(s) of Target Chain>
4Z2C,4Z2D,4Z2E

> <UniProt (SwissProt) Recommended Name of Target Chain>
DNA gyrase subunit B

> <UniProt (SwissProt) Entry Name of Target Chain>
GYRB_STRPN

> <UniProt (SwissProt) Primary ID of Target Chain>
P0A4L9

> <UniProt (SwissProt) Secondary ID(s) of Target Chain>
P48373

> <UniProt (SwissProt) Alternative ID(s) of Target Chain>


> <UniProt (TrEMBL) Submitted Name of Target Chain>


> <UniProt (TrEMBL) Entry Name of Target Chain>


> <UniProt (TrEMBL) Primary ID of Target Chain>


> <UniProt (TrEMBL) Secondary ID(s) of Target Chain>


> <UniProt (TrEMBL) Alternative ID(s) of Target Chain>


$$$$

  SciTegic09261414462D

 33 36  0  0  0  0            999 V2000
   27.8078  -14.6351    0.0000 C   0  0
   27.8067  -15.4547    0.0000 C   0  0
   28.5147  -15.8636    0.0000 C   0  0
   29.2244  -15.4542    0.0000 C   0  0
   29.2216  -14.6315    0.0000 C   0  0
   28.5130  -14.2263    0.0000 N   0  0
   27.1000  -14.2267    0.0000 N   0  0
   26.3924  -14.6355    0.0000 C   0  0
   25.6846  -14.2270    0.0000 N   0  0
   26.3926  -15.4526    0.0000 O   0  0
   24.9770  -14.6358    0.0000 C   0  0
   24.2692  -14.2274    0.0000 C   0  0
   29.9292  -15.8609    0.0000 C   0  0
   29.9292  -16.6792    0.0000 C   0  0
   30.6367  -17.0866    0.0000 N   0  0
   31.3448  -16.6769    0.0000 C   0  0
   31.3408  -15.8554    0.0000 C   0  0
   30.6328  -15.4517    0.0000 C   0  0
   32.0159  -15.3944    0.0000 C   0  0
   28.5195  -16.6808    0.0000 C   0  0
   27.8583  -17.1610    0.0000 S   0  0
   28.1107  -17.9382    0.0000 C   0  0
   28.9279  -17.9384    0.0000 C   0  0
   29.1805  -17.1613    0.0000 N   0  0
   29.4081  -18.5996    0.0000 C   0  0
   29.0756  -19.3461    0.0000 F   0  0
   30.2209  -18.5143    0.0000 F   0  0
   29.9843  -19.1751    0.0000 F   0  0
   32.7838  -15.6650    0.0000 N   0  0
   33.2832  -15.0182    0.0000 C   0  0
   32.8223  -14.3433    0.0000 N   0  0
   32.0381  -14.5732    0.0000 O   0  0
   34.1000  -15.0420    0.0000 C   0  0
  1  2  2  0
  2  3  1  0
  3  4  2  0
  4  5  1  0
  5  6  2  0
  6  1  1  0
  1  7  1  0
  7  8  1  0
  8  9  1  0
  8 10  2  0
  9 11  1  0
 11 12  1  0
 13 14  2  0
 14 15  1  0
 15 16  2  0
 16 17  1  0
 17 18  2  0
 18 13  1  0
  4 13  1  0
 17 19  1  0
 20 21  1  0
 21 22  1  0
 22 23  2  0
 23 24  1  0
 24 20  2  0
  3 20  1  0
 23 25  1  0
 25 26  1  0
 25 27  1  0
 25 28  1  0
 19 29  2  0
 29 30  1  0
 30 31  2  0
 31 32  1  0
 32 19  1  0
 30 33  1  0
M  END
> <From> 
www.bindingDB.org

> <BindingDB Reactant_set_id>
50083275

> <Ligand InChI>
InChI=1S/C20H16F3N7O2S/c1-3-25-19(31)29-16-5-13(18-28-15(9-33-18)20(21,22)23)14(8-26-16)11-4-12(7-24-6-11)17-27-10(2)30-32-17/h4-9H,3H2,1-2H3,(H2,25,26,29,31)

> <Ligand InChI Key>
NXJISBUWBKCTQL-UHFFFAOYSA-N

> <BindingDB MonomerID>
50006571

> <BindingDB Ligand Name>
CHEMBL3235091

> <Target Name Assigned by Curator or DataSource>
DNA Gyrase Subunit B

> <Target Source Organism According to Curator or DataSource>
Staphylococcus aureus

> <Ki (nM)>


> <IC50 (nM)>
 52

> <Kd (nM)>


> <EC50 (nM)>


> <kon (M-1-s-1)>


> <koff (s-1)>


> <pH>


> <Temp C>


> <Curation/DataSource>
ChEMBL

> <Article DOI>
10.1021/jm401208b

> <PMID>
24098982

> <PubChem AID>


> <Patent Number>


> <Authors>
Basarab, GS; Basarab, GS; Boriack-Sjodin, PA; Boriack-Sjodin, PA; Illingworth, R; Illingworth, R; Manchester, JI; Manchester, JI; Dangel, B; Dangel, B; Sriram, S; Sriram, S

> <Institution>
AstraZeneca R&amp;D Boston

> <Link to Ligand in BindingDB>
http://www.bindingdb.org/bind/chemsearch/marvin/MolStructure.jsp?monomerid=50006571

> <Link to Ligand-Target Pair in BindingDB>
http://www.bindingdb.org/jsp/dbsearch/PrimarySearch_ki.jsp?energyterm=kJ/mole&tag=pol&polymerid=2626&target=DNA+Gyrase+Subunit+B&column=ki&startPg=0&Increment=50&submit=Search

> <Link to Ligand-Target Pair in BindingDB>
http://www.bindingdb.org/jsp/dbsearch/PrimarySearch_ki.jsp?energyterm=kJ/mole&tag=r21&monomerid=50006571&enzyme=DNA+Gyrase+Subunit+B&column=ki&startPg=0&Increment=50&submit=Search

> <Ligand HET ID in PDB>


> <PDB ID(s) for Ligand-Target Complex>


> <PubChem CID>
44205639

> <PubChem SID>
103919972

> <ChEBI ID of Ligand>


> <ChEMBL ID of Ligand>
CHEMBL3235091

> <DrugBank ID of Ligand>


> <IUPHAR_GRAC ID of Ligand>


> <KEGG ID of Ligand>


> <ZINC ID of Ligand>
ZINC26378005

> <Number of Protein Chains in Target (>1 implies a multichain complex)>
1

> <BindingDB Target Chain Sequence>
MVTALSDVNNTDNYGAGQIQVLEGLEAVRKRPGMYIGSTSERGLHHLVWEIVDNSIDEALAGYANQIEVVIEKDNWIKVTDNGRGIPVDIQEKMGRPAVEVILTVLHAGGKFGGGGYKVSGGLHGVGSSVVNALSQDLEVYVHRNETIYHQAYKKGVPQFDLKEVGTTDKTGTVIRFKADGEIFTETTVYNYETLQQRIRELAFLNKGIQITLRDERDEENVREDSYHYEGGIKSYVELLNENKEPIHDEPIYIHQSKDDIEVEIAIQYNSGYATNLLTYANNIHTYEGGTHEDGFKRALTRVLNSYGLSSKIMKEEKDRLSGEDTREGMTAIISIKHGDPQFEGQTKTKLGNSEVRQVVDKLFSEHFERFLYENPQVARTVVEKGIMAARARVAAKKAREVTRRKSALDVASLPGKLADCSSKSPEECEIFLVEGDSAGGSTKSGRDSRTQAILPLRGKILNVEKARLDRILNNNEIRQMITAFGTGIGGDFDLAKARYHKIVIMTDADVDGAHIRTLLLTFFYRFMRPLIEAGYVYIAQPPLYKLTQGKQKYYVYNDRELDKLKSELNPTPKWSIARYKGLGEMNADQLWETTMNPEHRALLQVKLEDAIEADQTFEMLMGDVVENRRQFIEDNAVYANLDF

> <PDB ID(s) of Target Chain>


> <UniProt (SwissProt) Recommended Name of Target Chain>
DNA gyrase subunit B

> <UniProt (SwissProt) Entry Name of Target Chain>
GYRB_STAAU

> <UniProt (SwissProt) Primary ID of Target Chain>
P0A0K8

> <UniProt (SwissProt) Secondary ID(s) of Target Chain>
P20832

> <UniProt (SwissProt) Alternative ID(s) of Target Chain>


> <UniProt (TrEMBL) Submitted Name of Target Chain>


> <UniProt (TrEMBL) Entry Name of Target Chain>


> <UniProt (TrEMBL) Primary ID of Target Chain>


> <UniProt (TrEMBL) Secondary ID(s) of Target Chain>


> <UniProt (TrEMBL) Alternative ID(s) of Target Chain>


$$$$

  Mrv0541 11241408262D          

 31 34  0  0  0  0            999 V2000
    9.8152    1.3250    0.0000 C   0  0  0  0  0  0  0  0  0  0  0  0
    9.8141    0.4977    0.0000 C   0  0  0  0  0  0  0  0  0  0  0  0
   10.5289    0.0848    0.0000 C   0  0  0  0  0  0  0  0  0  0  0  0
   10.5271    1.7378    0.0000 C   0  0  0  0  0  0  0  0  0  0  0  0
   12.0338    1.5827    0.0000 N   0  0  0  0  0  0  0  0  0  0  0  0
   11.2425    1.3287    0.0000 C   0  0  0  0  0  0  0  0  0  0  0  0
   11.2406    0.4969    0.0000 N   0  0  0  0  0  0  0  0  0  0  0  0
   12.0318    0.2395    0.0000 C   0  0  0  0  0  0  0  0  0  0  0  0
   12.5198    0.9131    0.0000 C   0  0  0  0  0  0  0  0  0  0  0  0
    9.1028    1.7372    0.0000 C   0  0  0  0  0  0  0  0  0  0  0  0
    9.1039    2.5633    0.0000 C   0  0  0  0  0  0  0  0  0  0  0  0
    8.3902    2.9756    0.0000 N   0  0  0  0  0  0  0  0  0  0  0  0
    7.6748    2.5628    0.0000 C   0  0  0  0  0  0  0  0  0  0  0  0
    7.6777    1.7336    0.0000 C   0  0  0  0  0  0  0  0  0  0  0  0
    8.3920    1.3251    0.0000 C   0  0  0  0  0  0  0  0  0  0  0  0
   10.5309   -0.7374    0.0000 C   0  0  0  0  0  0  0  0  0  0  0  0
    9.8150   -1.1497    0.0000 N   0  0  0  0  0  0  0  0  0  0  0  0
    9.8151   -1.9740    0.0000 C   0  0  0  0  0  0  0  0  0  0  0  0
   10.5304   -2.3869    0.0000 C   0  0  0  0  0  0  0  0  0  0  0  0
   11.2470   -1.9696    0.0000 C   0  0  0  0  0  0  0  0  0  0  0  0
   11.2433   -1.1467    0.0000 N   0  0  0  0  0  0  0  0  0  0  0  0
   13.3448    0.9134    0.0000 N   0  0  0  0  0  0  0  0  0  0  0  0
   13.7570    1.6280    0.0000 C   0  0  0  0  0  0  0  0  0  0  0  0
   14.5820    1.6284    0.0000 N   0  0  0  0  0  0  0  0  0  0  0  0
   13.3443    2.3423    0.0000 O   0  0  0  0  0  0  0  0  0  0  0  0
   14.9948    0.9141    0.0000 C   0  0  0  0  0  0  0  0  0  0  0  0
   15.8198    0.9144    0.0000 C   0  0  0  0  0  0  0  0  0  0  0  0
    9.1007   -2.3865    0.0000 C   0  0  0  0  0  0  0  0  0  0  0  0
    8.3862   -1.9740    0.0000 O   0  0  0  0  0  0  0  0  0  0  0  0
    9.1007   -3.2115    0.0000 O   0  0  0  0  0  0  0  0  0  0  0  0
    8.3863   -3.6240    0.0000 C   0  0  0  0  0  0  0  0  0  0  0  0
 15 10  2  0  0  0  0
  1 10  1  0  0  0  0
  6  4  1  0  0  0  0
  5  6  2  0  0  0  0
 16 17  2  0  0  0  0
  7  8  1  0  0  0  0
 17 18  1  0  0  0  0
  8  9  2  0  0  0  0
 18 19  2  0  0  0  0
  9  5  1  0  0  0  0
 19 20  1  0  0  0  0
  4  1  2  0  0  0  0
 20 21  2  0  0  0  0
 21 16  1  0  0  0  0
  3 16  1  0  0  0  0
  6  7  1  0  0  0  0
  9 22  1  0  0  0  0
 10 11  1  0  0  0  0
 22 23  1  0  0  0  0
 23 24  1  0  0  0  0
 11 12  2  0  0  0  0
 23 25  2  0  0  0  0
  2  3  2  0  0  0  0
 24 26  1  0  0  0  0
 12 13  1  0  0  0  0
 26 27  1  0  0  0  0
  3  7  1  0  0  0  0
 18 28  1  0  0  0  0
 13 14  2  0  0  0  0
 28 29  2  0  0  0  0
  1  2  1  0  0  0  0
 28 30  1  0  0  0  0
 14 15  1  0  0  0  0
 30 31  1  0  0  0  0
M  END
> <From> 
www.bindingDB.org

> <BindingDB Reactant_set_id>
50904824

> <Ligand InChI>
InChI=1S/C21H19N7O3/c1-3-23-21(30)27-17-12-28-16(19-24-8-6-15(25-19)20(29)31-2)9-14(10-18(28)26-17)13-5-4-7-22-11-13/h4-12H,3H2,1-2H3,(H2,23,27,30)

> <Ligand InChI Key>
LPYHBQXASYFYSZ-UHFFFAOYSA-N

> <BindingDB MonomerID>
50378433

> <BindingDB Ligand Name>
CHEMBL584265

> <Target Name Assigned by Curator or DataSource>
DNA gyrase subunit B

> <Target Source Organism According to Curator or DataSource>
Streptococcus pneumoniae

> <Ki (nM)>


> <IC50 (nM)>
 52

> <Kd (nM)>


> <EC50 (nM)>


> <kon (M-1-s-1)>


> <koff (s-1)>


> <pH>


> <Temp C>


> <Curation/DataSource>
ChEMBL

> <Article DOI>
10.1016/j.bmcl.2009.07.141

> <PMID>
19683922

> <PubChem AID>


> <Patent Number>


> <Authors>
Starr, JT; Sciotti, RJ; Hanna, DL; Huband, MD; Mullins, LM; Cai, H; Gage, JW; Lockard, M; Rauckhorst, MR; Owen, RM; Lall, MS; Tomilo, M; Chen, H; McCurdy, SP; Barbachyn, MR

> <Institution>
Pfizer Inc.

> <Link to Ligand in BindingDB>
http://www.bindingdb.org/bind/chemsearch/marvin/MolStructure.jsp?monomerid=50378433

> <Link to Ligand-Target Pair in BindingDB>
http://www.bindingdb.org/jsp/dbsearch/PrimarySearch_ki.jsp?energyterm=kJ/mole&tag=pol&polymerid=50005944&target=DNA+gyrase+subunit+B&column=ki&startPg=0&Increment=50&submit=Search

> <Link to Ligand-Target Pair in BindingDB>
http://www.bindingdb.org/jsp/dbsearch/PrimarySearch_ki.jsp?energyterm=kJ/mole&tag=r21&monomerid=50378433&enzyme=DNA+gyrase+subunit+B&column=ki&startPg=0&Increment=50&submit=Search

> <Ligand HET ID in PDB>


> <PDB ID(s) for Ligand-Target Complex>


> <PubChem CID>
45484830

> <PubChem SID>
160857516

> <ChEBI ID of Ligand>


> <ChEMBL ID of Ligand>
CHEMBL584265

> <DrugBank ID of Ligand>


> <IUPHAR_GRAC ID of Ligand>


> <KEGG ID of Ligand>


> <ZINC ID of Ligand>
ZINC45321362

> <Number of Protein Chains in Target (>1 implies a multichain complex)>
1

> <BindingDB Target Chain Sequence>
MTEEIKNLQAQDYDASQIQVLEGLEAVRMRPGMYIGSTSKEGLHHLVWEIVDNSIDEALAGFASHIQVFIEPDDSITVVDDGRGIPVDIQEKTGRPAVETVFTVLHAGGKFGGGGYKVSGGLHGVGSSVVNALSTQLDVHVHKNGKIHYQEYRRGHVVADLEIVGDTDKTGTTVHFTPDPKIFTETTIFDFDKLNKRIQELAFLNRGLQISITDKRQGLEQTKHYHYEGGIASYVEYINENKDVIFDTPIYTDGEMDDITVEVAMQYTTGYHENVMSFANNIHTHEGGTHEQGFRTALTRVINDYARKNKLLKDNEDNLTGEDVREGLTAVISVKHPNPQFEGQTKTKLGNSEVVKITNRLFSEAFSDFLMENPQIAKRIVEKGILAAKARVAAKRAREVTRKKSGLEISNLPGKLADCSSNNPAETELFIVEGDSAGGSAKSGRNREFQAILPIRGKILNVEKASMDKILANEEIRSLFTAMGTGFGAEFDVSKARYQKLVLMTDADVDGAHIRTLLLTLIYRYMKPILEAGYVYIAQPPIYGVKVGSEIKEYIQPGADQEIKLQEALARYSEGRTKPTIQRYKGLGEMDDHQLWETTMDPEHRLMARVSVDDAAEADKIFDMLMGDRVEPRREFIEENAVYSTLDV

> <PDB ID(s) of Target Chain>
4Z2C,4Z2D,4Z2E

> <UniProt (SwissProt) Recommended Name of Target Chain>
DNA gyrase subunit B

> <UniProt (SwissProt) Entry Name of Target Chain>
GYRB_STRPN

> <UniProt (SwissProt) Primary ID of Target Chain>
P0A4L9

> <UniProt (SwissProt) Secondary ID(s) of Target Chain>
P48373

> <UniProt (SwissProt) Alternative ID(s) of Target Chain>


> <UniProt (TrEMBL) Submitted Name of Target Chain>


> <UniProt (TrEMBL) Entry Name of Target Chain>


> <UniProt (TrEMBL) Primary ID of Target Chain>


> <UniProt (TrEMBL) Secondary ID(s) of Target Chain>


> <UniProt (TrEMBL) Alternative ID(s) of Target Chain>


$$$$

  Mrv0541 11241408262D          

 28 31  0  0  0  0            999 V2000
    8.6652    0.4500    0.0000 C   0  0  0  0  0  0  0  0  0  0  0  0
    8.6641   -0.3773    0.0000 C   0  0  0  0  0  0  0  0  0  0  0  0
    9.3789   -0.7902    0.0000 C   0  0  0  0  0  0  0  0  0  0  0  0
    9.3771    0.8628    0.0000 C   0  0  0  0  0  0  0  0  0  0  0  0
   10.8838    0.7077    0.0000 N   0  0  0  0  0  0  0  0  0  0  0  0
   10.0925    0.4537    0.0000 C   0  0  0  0  0  0  0  0  0  0  0  0
   10.0907   -0.3781    0.0000 N   0  0  0  0  0  0  0  0  0  0  0  0
   10.8818   -0.6355    0.0000 C   0  0  0  0  0  0  0  0  0  0  0  0
   11.3698    0.0381    0.0000 C   0  0  0  0  0  0  0  0  0  0  0  0
    7.9528    0.8622    0.0000 C   0  0  0  0  0  0  0  0  0  0  0  0
    7.9539    1.6883    0.0000 C   0  0  0  0  0  0  0  0  0  0  0  0
    7.2402    2.1006    0.0000 N   0  0  0  0  0  0  0  0  0  0  0  0
    6.5248    1.6878    0.0000 C   0  0  0  0  0  0  0  0  0  0  0  0
    6.5277    0.8586    0.0000 C   0  0  0  0  0  0  0  0  0  0  0  0
    7.2420    0.4501    0.0000 C   0  0  0  0  0  0  0  0  0  0  0  0
    9.3809   -1.6124    0.0000 C   0  0  0  0  0  0  0  0  0  0  0  0
    8.6650   -2.0247    0.0000 N   0  0  0  0  0  0  0  0  0  0  0  0
    8.6651   -2.8490    0.0000 C   0  0  0  0  0  0  0  0  0  0  0  0
    9.3804   -3.2619    0.0000 C   0  0  0  0  0  0  0  0  0  0  0  0
   10.0970   -2.8446    0.0000 C   0  0  0  0  0  0  0  0  0  0  0  0
   10.0933   -2.0217    0.0000 N   0  0  0  0  0  0  0  0  0  0  0  0
   12.1948    0.0384    0.0000 N   0  0  0  0  0  0  0  0  0  0  0  0
   12.6070    0.7530    0.0000 C   0  0  0  0  0  0  0  0  0  0  0  0
   13.4320    0.7534    0.0000 N   0  0  0  0  0  0  0  0  0  0  0  0
   12.1943    1.4673    0.0000 O   0  0  0  0  0  0  0  0  0  0  0  0
   13.8448    0.0391    0.0000 C   0  0  0  0  0  0  0  0  0  0  0  0
   14.6698    0.0394    0.0000 C   0  0  0  0  0  0  0  0  0  0  0  0
    9.3819   -4.0869    0.0000 C   0  0  0  0  0  0  0  0  0  0  0  0
 13 14  2  0  0  0  0
  1  2  1  0  0  0  0
 14 15  1  0  0  0  0
 15 10  2  0  0  0  0
  1 10  1  0  0  0  0
  6  4  1  0  0  0  0
  5  6  2  0  0  0  0
 16 17  2  0  0  0  0
  7  8  1  0  0  0  0
 17 18  1  0  0  0  0
  8  9  2  0  0  0  0
 18 19  2  0  0  0  0
  9  5  1  0  0  0  0
 19 20  1  0  0  0  0
  4  1  2  0  0  0  0
 20 21  2  0  0  0  0
 21 16  1  0  0  0  0
  3 16  1  0  0  0  0
  6  7  1  0  0  0  0
  9 22  1  0  0  0  0
 10 11  1  0  0  0  0
 22 23  1  0  0  0  0
 23 24  1  0  0  0  0
 11 12  2  0  0  0  0
 23 25  2  0  0  0  0
  2  3  2  0  0  0  0
 24 26  1  0  0  0  0
 12 13  1  0  0  0  0
 26 27  1  0  0  0  0
  3  7  1  0  0  0  0
 19 28  1  0  0  0  0
M  END
> <From> 
www.bindingDB.org

> <BindingDB Reactant_set_id>
50904817

> <Ligand InChI>
InChI=1S/C20H19N7O/c1-3-22-20(28)26-17-12-27-16(19-23-9-13(2)10-24-19)7-15(8-18(27)25-17)14-5-4-6-21-11-14/h4-12H,3H2,1-2H3,(H2,22,26,28)

> <Ligand InChI Key>
RHKFSMZQNMYMGA-UHFFFAOYSA-N

> <BindingDB MonomerID>
50378426

> <BindingDB Ligand Name>
CHEMBL577478

> <Target Name Assigned by Curator or DataSource>
DNA gyrase subunit B

> <Target Source Organism According to Curator or DataSource>
Streptococcus pneumoniae

> <Ki (nM)>


> <IC50 (nM)>
 53

> <Kd (nM)>


> <EC50 (nM)>


> <kon (M-1-s-1)>


> <koff (s-1)>


> <pH>


> <Temp C>


> <Curation/DataSource>
ChEMBL

> <Article DOI>
10.1016/j.bmcl.2009.07.141

> <PMID>
19683922

> <PubChem AID>


> <Patent Number>


> <Authors>
Starr, JT; Sciotti, RJ; Hanna, DL; Huband, MD; Mullins, LM; Cai, H; Gage, JW; Lockard, M; Rauckhorst, MR; Owen, RM; Lall, MS; Tomilo, M; Chen, H; McCurdy, SP; Barbachyn, MR

> <Institution>
Pfizer Inc.

> <Link to Ligand in BindingDB>
http://www.bindingdb.org/bind/chemsearch/marvin/MolStructure.jsp?monomerid=50378426

> <Link to Ligand-Target Pair in BindingDB>
http://www.bindingdb.org/jsp/dbsearch/PrimarySearch_ki.jsp?energyterm=kJ/mole&tag=pol&polymerid=50005944&target=DNA+gyrase+subunit+B&column=ki&startPg=0&Increment=50&submit=Search

> <Link to Ligand-Target Pair in BindingDB>
http://www.bindingdb.org/jsp/dbsearch/PrimarySearch_ki.jsp?energyterm=kJ/mole&tag=r21&monomerid=50378426&enzyme=DNA+gyrase+subunit+B&column=ki&startPg=0&Increment=50&submit=Search

> <Ligand HET ID in PDB>


> <PDB ID(s) for Ligand-Target Complex>


> <PubChem CID>
44555361

> <PubChem SID>
160857509

> <ChEBI ID of Ligand>


> <ChEMBL ID of Ligand>
CHEMBL577478

> <DrugBank ID of Ligand>


> <IUPHAR_GRAC ID of Ligand>


> <KEGG ID of Ligand>


> <ZINC ID of Ligand>
ZINC45289290

> <Number of Protein Chains in Target (>1 implies a multichain complex)>
1

> <BindingDB Target Chain Sequence>
MTEEIKNLQAQDYDASQIQVLEGLEAVRMRPGMYIGSTSKEGLHHLVWEIVDNSIDEALAGFASHIQVFIEPDDSITVVDDGRGIPVDIQEKTGRPAVETVFTVLHAGGKFGGGGYKVSGGLHGVGSSVVNALSTQLDVHVHKNGKIHYQEYRRGHVVADLEIVGDTDKTGTTVHFTPDPKIFTETTIFDFDKLNKRIQELAFLNRGLQISITDKRQGLEQTKHYHYEGGIASYVEYINENKDVIFDTPIYTDGEMDDITVEVAMQYTTGYHENVMSFANNIHTHEGGTHEQGFRTALTRVINDYARKNKLLKDNEDNLTGEDVREGLTAVISVKHPNPQFEGQTKTKLGNSEVVKITNRLFSEAFSDFLMENPQIAKRIVEKGILAAKARVAAKRAREVTRKKSGLEISNLPGKLADCSSNNPAETELFIVEGDSAGGSAKSGRNREFQAILPIRGKILNVEKASMDKILANEEIRSLFTAMGTGFGAEFDVSKARYQKLVLMTDADVDGAHIRTLLLTLIYRYMKPILEAGYVYIAQPPIYGVKVGSEIKEYIQPGADQEIKLQEALARYSEGRTKPTIQRYKGLGEMDDHQLWETTMDPEHRLMARVSVDDAAEADKIFDMLMGDRVEPRREFIEENAVYSTLDV

> <PDB ID(s) of Target Chain>
4Z2C,4Z2D,4Z2E

> <UniProt (SwissProt) Recommended Name of Target Chain>
DNA gyrase subunit B

> <UniProt (SwissProt) Entry Name of Target Chain>
GYRB_STRPN

> <UniProt (SwissProt) Primary ID of Target Chain>
P0A4L9

> <UniProt (SwissProt) Secondary ID(s) of Target Chain>
P48373

> <UniProt (SwissProt) Alternative ID(s) of Target Chain>


> <UniProt (TrEMBL) Submitted Name of Target Chain>


> <UniProt (TrEMBL) Entry Name of Target Chain>


> <UniProt (TrEMBL) Primary ID of Target Chain>


> <UniProt (TrEMBL) Secondary ID(s) of Target Chain>


> <UniProt (TrEMBL) Alternative ID(s) of Target Chain>


$$$$

  Mrv0541 11241412382D          

 35 38  0  0  0  0            999 V2000
    0.6052    4.4871    0.0000 O   0  5  0  0  0  0  0  0  0  0  0  0
    1.3218    4.0746    0.0000 P   0  0  0  0  0  0  0  0  0  0  0  0
    1.3207    4.9015    0.0000 O   0  5  0  0  0  0  0  0  0  0  0  0
    0.6052    2.8372    0.0000 C   0  0  0  0  0  0  0  0  0  0  0  0
   -0.1004    1.5957    0.0000 N   0  0  0  0  0  0  0  0  0  0  0  0
   -0.1015    0.7684    0.0000 C   0  0  0  0  0  0  0  0  0  0  0  0
    0.6132    0.3556    0.0000 C   0  0  0  0  0  0  0  0  0  0  0  0
    1.3296    0.7689    0.0000 C   0  0  0  0  0  0  0  0  0  0  0  0
    1.3268    1.5993    0.0000 N   0  0  0  0  0  0  0  0  0  0  0  0
    0.6114    2.0084    0.0000 C   0  0  0  0  0  0  0  0  0  0  0  0
    0.6149   -0.4672    0.0000 C   0  0  0  0  0  0  0  0  0  0  0  0
   -0.1012   -0.8789    0.0000 C   0  0  0  0  0  0  0  0  0  0  0  0
    1.3300   -1.6998    0.0000 C   0  0  0  0  0  0  0  0  0  0  0  0
    1.3270   -0.8770    0.0000 C   0  0  0  0  0  0  0  0  0  0  0  0
    1.3221    3.2480    0.0000 O   0  0  0  0  0  0  0  0  0  0  0  0
   -0.1101    3.2482    0.0000 C   0  0  0  0  0  0  0  0  0  0  0  0
    0.6010    3.6622    0.0000 C   0  0  0  0  0  0  0  0  0  0  0  0
    2.0404   -0.4627    0.0000 F   0  0  0  0  0  0  0  0  0  0  0  0
    1.9946   -2.1917    0.0000 C   0  0  2  0  0  0  0  0  0  0  0  0
    1.9878   -3.0166    0.0000 O   0  0  0  0  0  0  0  0  0  0  0  0
    2.7703   -3.2780    0.0000 C   0  0  0  0  0  0  0  0  0  0  0  0
    3.2607   -2.6146    0.0000 C   0  0  0  0  0  0  0  0  0  0  0  0
    2.7813   -1.9433    0.0000 C   0  0  0  0  0  0  0  0  0  0  0  0
    0.6131   -2.1165    0.0000 C   0  0  0  0  0  0  0  0  0  0  0  0
   -0.1062   -1.7045    0.0000 C   0  0  0  0  0  0  0  0  0  0  0  0
   -0.7204   -2.2612    0.0000 N   0  0  0  0  0  0  0  0  0  0  0  0
   -0.3807   -3.0174    0.0000 C   0  0  0  0  0  0  0  0  0  0  0  0
    0.4434   -2.9279    0.0000 N   0  0  0  0  0  0  0  0  0  0  0  0
   -0.7907   -3.7332    0.0000 N   0  0  0  0  0  0  0  0  0  0  0  0
   -1.6157   -3.7360    0.0000 C   0  0  0  0  0  0  0  0  0  0  0  0
   -2.0257   -4.4518    0.0000 N   0  0  0  0  0  0  0  0  0  0  0  0
   -2.0306   -3.0230    0.0000 O   0  0  0  0  0  0  0  0  0  0  0  0
   -2.8507   -4.4546    0.0000 C   0  0  0  0  0  0  0  0  0  0  0  0
   -3.2607   -5.1704    0.0000 C   0  0  0  0  0  0  0  0  0  0  0  0
    2.0407    4.4830    0.0000 O   0  0  0  0  0  0  0  0  0  0  0  0
  2  1  1  0  0  0  0
  3  2  1  0  0  0  0
  5  6  2  0  0  0  0
  6  7  1  0  0  0  0
  7  8  2  0  0  0  0
  8  9  1  0  0  0  0
  9 10  2  0  0  0  0
 10  5  1  0  0  0  0
 11 12  1  0  0  0  0
 12 25  2  0  0  0  0
 24 13  2  0  0  0  0
 13 14  1  0  0  0  0
 14 11  2  0  0  0  0
  7 11  1  0  0  0  0
 10  4  1  0  0  0  0
  4 15  1  0  0  0  0
  4 16  1  0  0  0  0
  4 17  1  0  0  0  0
 14 18  1  0  0  0  0
 19 20  1  0  0  0  0
 20 21  1  0  0  0  0
 21 22  1  0  0  0  0
 22 23  1  0  0  0  0
 19 23  1  0  0  0  0
 19 13  1  1  0  0  0
 24 25  1  0  0  0  0
 25 26  1  0  0  0  0
 26 27  2  0  0  0  0
 27 28  1  0  0  0  0
 28 24  1  0  0  0  0
 27 29  1  0  0  0  0
 29 30  1  0  0  0  0
 30 31  1  0  0  0  0
 30 32  2  0  0  0  0
 31 33  1  0  0  0  0
 33 34  1  0  0  0  0
 15  2  1  0  0  0  0
  2 35  2  0  0  0  0
M  CHG  2   1  -1   3  -1
M  END
> <From> 
www.bindingDB.org

> <BindingDB Reactant_set_id>
50957627

> <Ligand InChI>
InChI=1S/C21H26FN6O6P/c1-4-23-20(29)28-19-26-13-8-12(16(22)15(17(13)27-19)14-6-5-7-33-14)11-9-24-18(25-10-11)21(2,3)34-35(30,31)32/h8-10,14H,4-7H2,1-3H3,(H2,30,31,32)(H3,23,26,27,28,29)/p-2/t14-/m1/s1

> <Ligand InChI Key>
COTQDURISRILOR-CQSZACIVSA-L

> <BindingDB MonomerID>
50393080

> <BindingDB Ligand Name>
CHEMBL2152856

> <Target Name Assigned by Curator or DataSource>
DNA Gyrase Subunit B

> <Target Source Organism According to Curator or DataSource>
Staphylococcus aureus

> <Ki (nM)>


> <IC50 (nM)>
 54

> <Kd (nM)>


> <EC50 (nM)>


> <kon (M-1-s-1)>


> <koff (s-1)>


> <pH>


> <Temp C>


> <Curation/DataSource>
ChEMBL

> <Article DOI>
10.1021/ml300234y

> <PMID>
24900376

> <PubChem AID>


> <Patent Number>


> <Authors>
Abdel-Magid, AF

> <Institution>
TBA

> <Link to Ligand in BindingDB>
http://www.bindingdb.org/bind/chemsearch/marvin/MolStructure.jsp?monomerid=50393080

> <Link to Ligand-Target Pair in BindingDB>
http://www.bindingdb.org/jsp/dbsearch/PrimarySearch_ki.jsp?energyterm=kJ/mole&tag=pol&polymerid=2626&target=DNA+Gyrase+Subunit+B&column=ki&startPg=0&Increment=50&submit=Search

> <Link to Ligand-Target Pair in BindingDB>
http://www.bindingdb.org/jsp/dbsearch/PrimarySearch_ki.jsp?energyterm=kJ/mole&tag=r21&monomerid=50393080&enzyme=DNA+Gyrase+Subunit+B&column=ki&startPg=0&Increment=50&submit=Search

> <Ligand HET ID in PDB>


> <PDB ID(s) for Ligand-Target Complex>


> <PubChem CID>
91929581

> <PubChem SID>
163342104

> <ChEBI ID of Ligand>


> <ChEMBL ID of Ligand>
CHEMBL2152856

> <DrugBank ID of Ligand>


> <IUPHAR_GRAC ID of Ligand>


> <KEGG ID of Ligand>


> <ZINC ID of Ligand>
ZINC95566061

> <Number of Protein Chains in Target (>1 implies a multichain complex)>
1

> <BindingDB Target Chain Sequence>
MVTALSDVNNTDNYGAGQIQVLEGLEAVRKRPGMYIGSTSERGLHHLVWEIVDNSIDEALAGYANQIEVVIEKDNWIKVTDNGRGIPVDIQEKMGRPAVEVILTVLHAGGKFGGGGYKVSGGLHGVGSSVVNALSQDLEVYVHRNETIYHQAYKKGVPQFDLKEVGTTDKTGTVIRFKADGEIFTETTVYNYETLQQRIRELAFLNKGIQITLRDERDEENVREDSYHYEGGIKSYVELLNENKEPIHDEPIYIHQSKDDIEVEIAIQYNSGYATNLLTYANNIHTYEGGTHEDGFKRALTRVLNSYGLSSKIMKEEKDRLSGEDTREGMTAIISIKHGDPQFEGQTKTKLGNSEVRQVVDKLFSEHFERFLYENPQVARTVVEKGIMAARARVAAKKAREVTRRKSALDVASLPGKLADCSSKSPEECEIFLVEGDSAGGSTKSGRDSRTQAILPLRGKILNVEKARLDRILNNNEIRQMITAFGTGIGGDFDLAKARYHKIVIMTDADVDGAHIRTLLLTFFYRFMRPLIEAGYVYIAQPPLYKLTQGKQKYYVYNDRELDKLKSELNPTPKWSIARYKGLGEMNADQLWETTMNPEHRALLQVKLEDAIEADQTFEMLMGDVVENRRQFIEDNAVYANLDF

> <PDB ID(s) of Target Chain>


> <UniProt (SwissProt) Recommended Name of Target Chain>
DNA gyrase subunit B

> <UniProt (SwissProt) Entry Name of Target Chain>
GYRB_STAAU

> <UniProt (SwissProt) Primary ID of Target Chain>
P0A0K8

> <UniProt (SwissProt) Secondary ID(s) of Target Chain>
P20832

> <UniProt (SwissProt) Alternative ID(s) of Target Chain>


> <UniProt (TrEMBL) Submitted Name of Target Chain>


> <UniProt (TrEMBL) Entry Name of Target Chain>


> <UniProt (TrEMBL) Primary ID of Target Chain>


> <UniProt (TrEMBL) Secondary ID(s) of Target Chain>


> <UniProt (TrEMBL) Alternative ID(s) of Target Chain>


$$$$

  SciTegic02271514412D

 28 30  0  0  0  0            999 V2000
    8.0881   -2.9280    0.0000 C   0  0
    7.2640   -2.9655    0.0000 C   0  0
    6.8883   -3.6953    0.0000 C   0  0  2  0  0  0
    7.3286   -4.3880    0.0000 C   0  0  2  0  0  0
    8.1527   -4.3506    0.0000 C   0  0
    8.5366   -3.6205    0.0000 N   0  0
    6.0642   -3.7327    0.0000 N   0  0
    5.6197   -3.0377    0.0000 C   0  0
    4.7956   -3.0751    0.0000 C   0  0
    5.9994   -2.3052    0.0000 O   0  0
    9.3608   -3.5830    0.0000 C   0  0
    4.2842   -2.4273    0.0000 C   0  0
    3.5119   -2.7176    0.0000 C   0  0
    3.5494   -3.5418    0.0000 C   0  0
    4.3447   -3.7608    0.0000 N   0  0
    9.8735   -4.2259    0.0000 N   0  0
   10.6458   -3.9356    0.0000 C   0  0
   10.6083   -3.1113    0.0000 C   0  0
    9.8130   -2.8924    0.0000 S   0  0
   11.2530   -2.5966    0.0000 C   0  0
   12.0212   -2.8976    0.0000 O   0  0
   11.1296   -1.7810    0.0000 O   0  0
    2.9046   -4.0565    0.0000 C   0  0
    4.5054   -1.6326    0.0000 Cl  0  0
    2.8232   -2.2634    0.0000 Cl  0  0
    6.9478   -5.1200    0.0000 C   0  0
    7.3955   -5.8222    0.0000 O   0  0
    7.0148   -6.5541    0.0000 C   0  0
  1  2  1  0
  1  6  1  0
  2  3  1  0
  3  4  1  0
  4  5  1  0
  5  6  1  0
  3  7  1  6
  7  8  1  0
  8  9  1  0
  8 10  2  0
  6 11  1  0
  9 12  2  0
 12 13  1  0
 13 14  2  0
 14 15  1  0
 15  9  1  0
 11 16  2  0
 16 17  1  0
 17 18  2  0
 18 19  1  0
 19 11  1  0
 18 20  1  0
 20 21  1  0
 20 22  2  0
 14 23  1  0
 12 24  1  0
 13 25  1  0
  4 26  1  6
 26 27  1  0
 27 28  1  0
M  END
> <From> 
www.bindingDB.org

> <BindingDB Reactant_set_id>
50271392

> <Ligand InChI>
InChI=1S/C17H20Cl2N4O4S/c1-8-12(18)13(19)14(21-8)15(24)22-10-3-4-23(6-9(10)7-27-2)17-20-5-11(28-17)16(25)26/h5,9-10,21H,3-4,6-7H2,1-2H3,(H,22,24)(H,25,26)/t9-,10-/m1/s1

> <Ligand InChI Key>
LEIHITSDQIFMCS-NXEZZACHSA-N

> <BindingDB MonomerID>
50047326

> <BindingDB Ligand Name>
CHEMBL3314535

> <Target Name Assigned by Curator or DataSource>
DNA Gyrase Subunit B

> <Target Source Organism According to Curator or DataSource>
Staphylococcus aureus

> <Ki (nM)>


> <IC50 (nM)>
 54

> <Kd (nM)>


> <EC50 (nM)>


> <kon (M-1-s-1)>


> <koff (s-1)>


> <pH>


> <Temp C>


> <Curation/DataSource>
ChEMBL

> <Article DOI>
10.1021/jm500462x

> <PMID>
24959892

> <PubChem AID>


> <Patent Number>


> <Authors>
Basarab, GS; Hill, PJ; Garner, CE; Hull, K; Green, O; Sherer, BA; Dangel, PB; Manchester, JI; Bist, S; Hauck, S; Zhou, F; Uria-Nickelsen, M; Illingworth, R; Alm, R; Rooney, M; Eakin, AE

> <Institution>
AstraZeneca

> <Link to Ligand in BindingDB>
http://www.bindingdb.org/bind/chemsearch/marvin/MolStructure.jsp?monomerid=50047326

> <Link to Ligand-Target Pair in BindingDB>
http://www.bindingdb.org/jsp/dbsearch/PrimarySearch_ki.jsp?energyterm=kJ/mole&tag=pol&polymerid=2626&target=DNA+Gyrase+Subunit+B&column=ki&startPg=0&Increment=50&submit=Search

> <Link to Ligand-Target Pair in BindingDB>
http://www.bindingdb.org/jsp/dbsearch/PrimarySearch_ki.jsp?energyterm=kJ/mole&tag=r21&monomerid=50047326&enzyme=DNA+Gyrase+Subunit+B&column=ki&startPg=0&Increment=50&submit=Search

> <Ligand HET ID in PDB>


> <PDB ID(s) for Ligand-Target Complex>


> <PubChem CID>
89698941

> <PubChem SID>
103978006

> <ChEBI ID of Ligand>


> <ChEMBL ID of Ligand>
CHEMBL33344

> <DrugBank ID of Ligand>


> <IUPHAR_GRAC ID of Ligand>


> <KEGG ID of Ligand>


> <ZINC ID of Ligand>
ZINC29222020

> <Number of Protein Chains in Target (>1 implies a multichain complex)>
1

> <BindingDB Target Chain Sequence>
MVTALSDVNNTDNYGAGQIQVLEGLEAVRKRPGMYIGSTSERGLHHLVWEIVDNSIDEALAGYANQIEVVIEKDNWIKVTDNGRGIPVDIQEKMGRPAVEVILTVLHAGGKFGGGGYKVSGGLHGVGSSVVNALSQDLEVYVHRNETIYHQAYKKGVPQFDLKEVGTTDKTGTVIRFKADGEIFTETTVYNYETLQQRIRELAFLNKGIQITLRDERDEENVREDSYHYEGGIKSYVELLNENKEPIHDEPIYIHQSKDDIEVEIAIQYNSGYATNLLTYANNIHTYEGGTHEDGFKRALTRVLNSYGLSSKIMKEEKDRLSGEDTREGMTAIISIKHGDPQFEGQTKTKLGNSEVRQVVDKLFSEHFERFLYENPQVARTVVEKGIMAARARVAAKKAREVTRRKSALDVASLPGKLADCSSKSPEECEIFLVEGDSAGGSTKSGRDSRTQAILPLRGKILNVEKARLDRILNNNEIRQMITAFGTGIGGDFDLAKARYHKIVIMTDADVDGAHIRTLLLTFFYRFMRPLIEAGYVYIAQPPLYKLTQGKQKYYVYNDRELDKLKSELNPTPKWSIARYKGLGEMNADQLWETTMNPEHRALLQVKLEDAIEADQTFEMLMGDVVENRRQFIEDNAVYANLDF

> <PDB ID(s) of Target Chain>


> <UniProt (SwissProt) Recommended Name of Target Chain>
DNA gyrase subunit B

> <UniProt (SwissProt) Entry Name of Target Chain>
GYRB_STAAU

> <UniProt (SwissProt) Primary ID of Target Chain>
P0A0K8

> <UniProt (SwissProt) Secondary ID(s) of Target Chain>
P20832

> <UniProt (SwissProt) Alternative ID(s) of Target Chain>


> <UniProt (TrEMBL) Submitted Name of Target Chain>


> <UniProt (TrEMBL) Entry Name of Target Chain>


> <UniProt (TrEMBL) Primary ID of Target Chain>


> <UniProt (TrEMBL) Secondary ID(s) of Target Chain>


> <UniProt (TrEMBL) Alternative ID(s) of Target Chain>


$$$$

  Mrv0541 11241408262D          

 28 31  0  0  0  0            999 V2000
   -2.0014  -15.1083    0.0000 C   0  0  0  0  0  0  0  0  0  0  0  0
   -2.0026  -15.9357    0.0000 C   0  0  0  0  0  0  0  0  0  0  0  0
   -1.2878  -16.3485    0.0000 C   0  0  0  0  0  0  0  0  0  0  0  0
   -1.2896  -14.6955    0.0000 C   0  0  0  0  0  0  0  0  0  0  0  0
    0.2171  -14.8506    0.0000 N   0  0  0  0  0  0  0  0  0  0  0  0
   -0.5742  -15.1047    0.0000 C   0  0  0  0  0  0  0  0  0  0  0  0
   -0.5760  -15.9364    0.0000 N   0  0  0  0  0  0  0  0  0  0  0  0
    0.2151  -16.1938    0.0000 C   0  0  0  0  0  0  0  0  0  0  0  0
    0.7032  -15.5203    0.0000 C   0  0  0  0  0  0  0  0  0  0  0  0
   -2.7139  -14.6961    0.0000 C   0  0  0  0  0  0  0  0  0  0  0  0
   -2.7128  -13.8700    0.0000 C   0  0  0  0  0  0  0  0  0  0  0  0
   -3.4265  -13.4578    0.0000 N   0  0  0  0  0  0  0  0  0  0  0  0
   -4.1418  -13.8705    0.0000 C   0  0  0  0  0  0  0  0  0  0  0  0
   -4.1390  -14.6998    0.0000 C   0  0  0  0  0  0  0  0  0  0  0  0
   -3.4247  -15.1083    0.0000 C   0  0  0  0  0  0  0  0  0  0  0  0
   -1.2858  -17.1708    0.0000 C   0  0  0  0  0  0  0  0  0  0  0  0
   -2.0016  -17.5831    0.0000 N   0  0  0  0  0  0  0  0  0  0  0  0
   -2.0015  -18.4073    0.0000 C   0  0  0  0  0  0  0  0  0  0  0  0
   -1.2863  -18.8202    0.0000 C   0  0  0  0  0  0  0  0  0  0  0  0
   -0.5697  -18.4029    0.0000 C   0  0  0  0  0  0  0  0  0  0  0  0
   -0.5733  -17.5800    0.0000 N   0  0  0  0  0  0  0  0  0  0  0  0
    1.5282  -15.5199    0.0000 N   0  0  0  0  0  0  0  0  0  0  0  0
    1.9404  -14.8053    0.0000 C   0  0  0  0  0  0  0  0  0  0  0  0
    2.7654  -14.8050    0.0000 N   0  0  0  0  0  0  0  0  0  0  0  0
    1.5276  -14.0910    0.0000 O   0  0  0  0  0  0  0  0  0  0  0  0
    3.1782  -15.5193    0.0000 C   0  0  0  0  0  0  0  0  0  0  0  0
    4.0032  -15.5189    0.0000 C   0  0  0  0  0  0  0  0  0  0  0  0
   -1.2848  -19.6452    0.0000 F   0  0  0  0  0  0  0  0  0  0  0  0
 13 14  2  0  0  0  0
  1  2  1  0  0  0  0
 14 15  1  0  0  0  0
 15 10  2  0  0  0  0
  1 10  1  0  0  0  0
  6  4  1  0  0  0  0
  5  6  2  0  0  0  0
 16 17  2  0  0  0  0
  7  8  1  0  0  0  0
 17 18  1  0  0  0  0
  8  9  2  0  0  0  0
 18 19  2  0  0  0  0
  9  5  1  0  0  0  0
 19 20  1  0  0  0  0
  4  1  2  0  0  0  0
 20 21  2  0  0  0  0
 21 16  1  0  0  0  0
  3 16  1  0  0  0  0
  6  7  1  0  0  0  0
  9 22  1  0  0  0  0
 10 11  1  0  0  0  0
 22 23  1  0  0  0  0
 23 24  1  0  0  0  0
 11 12  2  0  0  0  0
 23 25  2  0  0  0  0
  2  3  2  0  0  0  0
 24 26  1  0  0  0  0
 12 13  1  0  0  0  0
 26 27  1  0  0  0  0
  3  7  1  0  0  0  0
 19 28  1  0  0  0  0
M  END
> <From> 
www.bindingDB.org

> <BindingDB Reactant_set_id>
50904820

> <Ligand InChI>
InChI=1S/C19H16FN7O/c1-2-22-19(28)26-16-11-27-15(18-23-9-14(20)10-24-18)6-13(7-17(27)25-16)12-4-3-5-21-8-12/h3-11H,2H2,1H3,(H2,22,26,28)

> <Ligand InChI Key>
PRKHQSKTQFWPGJ-UHFFFAOYSA-N

> <BindingDB MonomerID>
50378429

> <BindingDB Ligand Name>
CHEMBL583049

> <Target Name Assigned by Curator or DataSource>
DNA gyrase subunit B

> <Target Source Organism According to Curator or DataSource>
Streptococcus pneumoniae

> <Ki (nM)>


> <IC50 (nM)>
 56

> <Kd (nM)>


> <EC50 (nM)>


> <kon (M-1-s-1)>


> <koff (s-1)>


> <pH>


> <Temp C>


> <Curation/DataSource>
ChEMBL

> <Article DOI>
10.1016/j.bmcl.2009.07.141

> <PMID>
19683922

> <PubChem AID>


> <Patent Number>


> <Authors>
Starr, JT; Sciotti, RJ; Hanna, DL; Huband, MD; Mullins, LM; Cai, H; Gage, JW; Lockard, M; Rauckhorst, MR; Owen, RM; Lall, MS; Tomilo, M; Chen, H; McCurdy, SP; Barbachyn, MR

> <Institution>
Pfizer Inc.

> <Link to Ligand in BindingDB>
http://www.bindingdb.org/bind/chemsearch/marvin/MolStructure.jsp?monomerid=50378429

> <Link to Ligand-Target Pair in BindingDB>
http://www.bindingdb.org/jsp/dbsearch/PrimarySearch_ki.jsp?energyterm=kJ/mole&tag=pol&polymerid=50005944&target=DNA+gyrase+subunit+B&column=ki&startPg=0&Increment=50&submit=Search

> <Link to Ligand-Target Pair in BindingDB>
http://www.bindingdb.org/jsp/dbsearch/PrimarySearch_ki.jsp?energyterm=kJ/mole&tag=r21&monomerid=50378429&enzyme=DNA+gyrase+subunit+B&column=ki&startPg=0&Increment=50&submit=Search

> <Ligand HET ID in PDB>


> <PDB ID(s) for Ligand-Target Complex>


> <PubChem CID>
45484775

> <PubChem SID>
160857512

> <ChEBI ID of Ligand>


> <ChEMBL ID of Ligand>
CHEMBL583049

> <DrugBank ID of Ligand>


> <IUPHAR_GRAC ID of Ligand>


> <KEGG ID of Ligand>


> <ZINC ID of Ligand>
ZINC45320687

> <Number of Protein Chains in Target (>1 implies a multichain complex)>
1

> <BindingDB Target Chain Sequence>
MTEEIKNLQAQDYDASQIQVLEGLEAVRMRPGMYIGSTSKEGLHHLVWEIVDNSIDEALAGFASHIQVFIEPDDSITVVDDGRGIPVDIQEKTGRPAVETVFTVLHAGGKFGGGGYKVSGGLHGVGSSVVNALSTQLDVHVHKNGKIHYQEYRRGHVVADLEIVGDTDKTGTTVHFTPDPKIFTETTIFDFDKLNKRIQELAFLNRGLQISITDKRQGLEQTKHYHYEGGIASYVEYINENKDVIFDTPIYTDGEMDDITVEVAMQYTTGYHENVMSFANNIHTHEGGTHEQGFRTALTRVINDYARKNKLLKDNEDNLTGEDVREGLTAVISVKHPNPQFEGQTKTKLGNSEVVKITNRLFSEAFSDFLMENPQIAKRIVEKGILAAKARVAAKRAREVTRKKSGLEISNLPGKLADCSSNNPAETELFIVEGDSAGGSAKSGRNREFQAILPIRGKILNVEKASMDKILANEEIRSLFTAMGTGFGAEFDVSKARYQKLVLMTDADVDGAHIRTLLLTLIYRYMKPILEAGYVYIAQPPIYGVKVGSEIKEYIQPGADQEIKLQEALARYSEGRTKPTIQRYKGLGEMDDHQLWETTMDPEHRLMARVSVDDAAEADKIFDMLMGDRVEPRREFIEENAVYSTLDV

> <PDB ID(s) of Target Chain>
4Z2C,4Z2D,4Z2E

> <UniProt (SwissProt) Recommended Name of Target Chain>
DNA gyrase subunit B

> <UniProt (SwissProt) Entry Name of Target Chain>
GYRB_STRPN

> <UniProt (SwissProt) Primary ID of Target Chain>
P0A4L9

> <UniProt (SwissProt) Secondary ID(s) of Target Chain>
P48373

> <UniProt (SwissProt) Alternative ID(s) of Target Chain>


> <UniProt (TrEMBL) Submitted Name of Target Chain>


> <UniProt (TrEMBL) Entry Name of Target Chain>


> <UniProt (TrEMBL) Primary ID of Target Chain>


> <UniProt (TrEMBL) Secondary ID(s) of Target Chain>


> <UniProt (TrEMBL) Alternative ID(s) of Target Chain>


$$$$

  SciTegic12241701162D

 27 29  0  0  0  0            999 V2000
   12.7395   -8.0563    0.0000 O   0  0
   13.1481   -8.7612    0.0000 C   0  0
   13.9653   -8.7612    0.0000 C   0  0
   14.3739   -8.0563    0.0000 C   0  0
   15.1911   -8.0563    0.0000 C   0  0
   15.5997   -8.7612    0.0000 O   0  0
   15.5997   -7.3472    0.0000 O   0  0
   12.7395   -9.4703    0.0000 N   0  0
   11.9223   -9.4703    0.0000 C   0  0
   11.4422   -8.8071    0.0000 N   0  0
   10.6650   -9.0617    0.0000 C   0  0
    9.9559   -8.6531    0.0000 C   0  0
    9.2468   -9.0617    0.0000 C   0  0
    9.2468   -9.8789    0.0000 C   0  0
    8.5418  -10.2875    0.0000 N   0  0
    7.8327   -9.8789    0.0000 C   0  0
    7.8327   -9.0617    0.0000 C   0  0
    8.4960   -8.5816    0.0000 C   0  0
    8.2413   -7.8044    0.0000 C   0  0
    8.7215   -7.1411    0.0000 Br  0  0
    7.4241   -7.8044    0.0000 C   0  0
    6.9440   -7.1411    0.0000 Br  0  0
    7.1695   -8.5816    0.0000 N   0  0
    7.1236  -10.2875    0.0000 O   0  0
    9.9559  -10.2875    0.0000 C   0  0
   10.6650   -9.8789    0.0000 C   0  0
   11.4422  -10.1295    0.0000 S   0  0
  1  2  2  0
  2  3  1  0
  3  4  1  0
  4  5  1  0
  5  6  1  0
  5  7  2  0
  2  8  1  0
  8  9  1  0
  9 10  2  0
 10 11  1  0
 11 12  2  0
 12 13  1  0
 13 14  2  0
 14 15  1  0
 15 16  1  0
 16 17  1  0
 17 18  2  0
 18 19  1  0
 19 20  1  0
 19 21  2  0
 21 22  1  0
 21 23  1  0
 17 23  1  0
 16 24  2  0
 14 25  1  0
 25 26  2  0
 11 26  1  0
 26 27  1  0
  9 27  1  0
M  END
> <From> 
www.bindingDB.org

> <BindingDB Reactant_set_id>
50524121

> <Ligand InChI>
InChI=1S/C16H12Br2N4O4S/c17-8-6-10(20-14(8)18)15(26)19-7-1-2-9-11(5-7)27-16(21-9)22-12(23)3-4-13(24)25/h1-2,5-6,20H,3-4H2,(H,19,26)(H,24,25)(H,21,22,23)

> <Ligand InChI Key>
JEJYVYOYQDMEQR-UHFFFAOYSA-N

> <BindingDB MonomerID>
50198315

> <BindingDB Ligand Name>
CHEMBL3973476

> <Target Name Assigned by Curator or DataSource>
DNA Gyrase Subunit B

> <Target Source Organism According to Curator or DataSource>
Escherichia coli

> <Ki (nM)>


> <IC50 (nM)>
 57

> <Kd (nM)>


> <EC50 (nM)>


> <kon (M-1-s-1)>


> <koff (s-1)>


> <pH>


> <Temp C>


> <Curation/DataSource>
ChEMBL

> <Article DOI>
10.1021/acs.jmedchem.6b00864

> <PMID>
27541007

> <PubChem AID>


> <Patent Number>


> <Authors>
Gjorgjieva, M; Tomaic, T; Barancokova, M; Katsamakas, S; Ila, J; Tammela, P; Peterlin Maic, L; Kikelj, D

> <Institution>
University of Ljubljana

> <Link to Ligand in BindingDB>
http://www.bindingdb.org/bind/chemsearch/marvin/MolStructure.jsp?monomerid=50198315

> <Link to Ligand-Target Pair in BindingDB>
http://www.bindingdb.org/jsp/dbsearch/PrimarySearch_ki.jsp?energyterm=kJ/mole&tag=pol&polymerid=2630&target=DNA+Gyrase+Subunit+B&column=ki&startPg=0&Increment=50&submit=Search

> <Link to Ligand-Target Pair in BindingDB>
http://www.bindingdb.org/jsp/dbsearch/PrimarySearch_ki.jsp?energyterm=kJ/mole&tag=r21&monomerid=50198315&enzyme=DNA+Gyrase+Subunit+B&column=ki&startPg=0&Increment=50&submit=Search

> <Ligand HET ID in PDB>


> <PDB ID(s) for Ligand-Target Complex>


> <PubChem CID>
134153043

> <PubChem SID>
375978199

> <ChEBI ID of Ligand>


> <ChEMBL ID of Ligand>


> <DrugBank ID of Ligand>


> <IUPHAR_GRAC ID of Ligand>


> <KEGG ID of Ligand>


> <ZINC ID of Ligand>


> <Number of Protein Chains in Target (>1 implies a multichain complex)>
1

> <BindingDB Target Chain Sequence>
MSNSYDSSSIKVLKGLDAVRKRPGMYIGDTDDGTGLHHMVFEVVDNAIDEALAGHCKEII
VTIHADNSVSVQDDGRGIPTGIHPEEGVSAAEVIMTVLHAGGKFDDNSYKVSGGLHGVGV
SVVNALSQKLELVIQREGKIHRQIYEHGVPQAPLAVTGETEKTGTMVRFWPSLETFTNVT
EFEYEILAKRLRELSFLNSGVSIRLRDKRDGKEDHFHYEGGIKAFVEYLNKNKTPIHPNI
FYFSTEKDGIGVEVALQWNDGFQENIYCFTNNIPQRDGGTHLAGFRAAMTRTLNAYMDKE
GYSKKAKVSATGDDAREGLIAVVSVKVPDPKFSSQTKDKLVSSEVKSAVEQQMNELLAEY
LLENPTDAKIVVGKIIDAARAREAARRAREMTRRKGALDLAGLPGKLADCQERDPALSEL
YLVEGDSAGGSAKQGRNRKNQAILPLKGKILNVEKARFDKMLSSQEVATLITALGCGIGR
DEYNPDKLRYHSIIIMTDADVDGSHIRTLLLTFFYRQMPEIVERGHVYIAQPPLYKVKKG
KQEQYIKDDEAMDQYQISIALDGATLHTNASAPALAGEALEKLVSEYNATQKMINRMERR
YPKAMLKELIYQPTLTEADLSDEQTVTRWVNALVSELNDKEQHGSQWKFDVHTNAEQNLF
EPIVRVRTHGVDTDYPLDHEFITGGEYRRICTLGEKLRGLLEEDAFIERGERRQPVASFE
QALDWLVKESRRGLSIQRYKGLGEMNPEQLWETTMDPESRRMLRVTVKDAIAADQLFTTL
MGDAVEPRRAFIEENALKAANIDI

> <PDB ID(s) of Target Chain>
1KZN,3G7E,3NUH,4DUH,4HYP,4KFG,4PRV,4PRX,4PU9,4WUB,4WUC,4WUD,4XTJ,4ZVI,5L3J,5MMN,5MMO,5MMP,5Z4H,5Z4O,5Z9B,5Z9E,5Z9F,5Z9L,5Z9M,5Z9N,5Z9Q,6ENG,6F86,6F8J,6F94,6F96

> <UniProt (SwissProt) Recommended Name of Target Chain>
DNA gyrase subunit B

> <UniProt (SwissProt) Entry Name of Target Chain>
GYRB_ECOLI

> <UniProt (SwissProt) Primary ID of Target Chain>
P0AES6

> <UniProt (SwissProt) Secondary ID(s) of Target Chain>
O08438,P06982,Q2M811

> <UniProt (SwissProt) Alternative ID(s) of Target Chain>


> <UniProt (TrEMBL) Submitted Name of Target Chain>


> <UniProt (TrEMBL) Entry Name of Target Chain>


> <UniProt (TrEMBL) Primary ID of Target Chain>


> <UniProt (TrEMBL) Secondary ID(s) of Target Chain>


> <UniProt (TrEMBL) Alternative ID(s) of Target Chain>


$$$$

  Mrv0541 11241412072D          

 33 36  0  0  0  0            999 V2000
   16.6247    1.6223    0.0000 C   0  0  0  0  0  0  0  0  0  0  0  0
   17.3412    2.0356    0.0000 C   0  0  0  0  0  0  0  0  0  0  0  0
   17.3383    2.8662    0.0000 C   0  0  0  0  0  0  0  0  0  0  0  0
   16.6229    3.2753    0.0000 N   0  0  0  0  0  0  0  0  0  0  0  0
   15.9099    2.0352    0.0000 C   0  0  0  0  0  0  0  0  0  0  0  0
   15.9112    2.8641    0.0000 C   0  0  0  0  0  0  0  0  0  0  0  0
   15.1232    3.1214    0.0000 N   0  0  0  0  0  0  0  0  0  0  0  0
   14.6349    2.4515    0.0000 C   0  0  0  0  0  0  0  0  0  0  0  0
   15.1212    1.7803    0.0000 C   0  0  0  0  0  0  0  0  0  0  0  0
   18.0527    1.6250    0.0000 C   0  0  0  0  0  0  0  0  0  0  0  0
   18.0527    0.7989    0.0000 C   0  0  0  0  0  0  0  0  0  0  0  0
   18.7670    0.3876    0.0000 N   0  0  0  0  0  0  0  0  0  0  0  0
   19.4818    0.8013    0.0000 C   0  0  0  0  0  0  0  0  0  0  0  0
   19.4778    1.6306    0.0000 C   0  0  0  0  0  0  0  0  0  0  0  0
   18.7630    2.0381    0.0000 C   0  0  0  0  0  0  0  0  0  0  0  0
   20.1928    2.0481    0.0000 C   0  0  0  0  0  0  0  0  0  0  0  0
   20.9093    1.6392    0.0000 O   0  0  0  0  0  0  0  0  0  0  0  0
   20.1886    2.8731    0.0000 O   0  0  0  0  0  0  0  0  0  0  0  0
   16.6269    0.8010    0.0000 N   0  0  0  0  0  0  0  0  0  0  0  0
   15.9593    0.3163    0.0000 C   0  0  0  0  0  0  0  0  0  0  0  0
   16.2141   -0.4684    0.0000 C   0  0  0  0  0  0  0  0  0  0  0  0
   17.0391   -0.4686    0.0000 C   0  0  0  0  0  0  0  0  0  0  0  0
   17.2941    0.3159    0.0000 N   0  0  0  0  0  0  0  0  0  0  0  0
   17.5240   -1.1362    0.0000 C   0  0  0  0  0  0  0  0  0  0  0  0
   17.1883   -1.8898    0.0000 F   0  0  0  0  0  0  0  0  0  0  0  0
   18.3445   -1.0500    0.0000 F   0  0  0  0  0  0  0  0  0  0  0  0
   17.9292   -1.8458    0.0000 F   0  0  0  0  0  0  0  0  0  0  0  0
   13.8099    2.4527    0.0000 C   0  0  0  0  0  0  0  0  0  0  0  0
   13.3984    3.1678    0.0000 N   0  0  0  0  0  0  0  0  0  0  0  0
   13.3964    1.7389    0.0000 O   0  0  0  0  0  0  0  0  0  0  0  0
   12.5734    3.1690    0.0000 C   0  0  0  0  0  0  0  0  0  0  0  0
   12.1599    2.4551    0.0000 C   0  0  0  0  0  0  0  0  0  0  0  0
   11.3349    2.4563    0.0000 C   0  0  0  0  0  0  0  0  0  0  0  0
  3  4  1  0  0  0  0
  6  7  1  0  0  0  0
  7  8  1  0  0  0  0
 16 17  1  0  0  0  0
 16 18  2  0  0  0  0
 14 16  1  0  0  0  0
 19 20  1  0  0  0  0
  8  9  2  0  0  0  0
  9  5  1  0  0  0  0
  4  6  2  0  0  0  0
  5  6  1  0  0  0  0
 10 11  2  0  0  0  0
 20 21  2  0  0  0  0
 21 22  1  0  0  0  0
 22 23  2  0  0  0  0
 23 19  1  0  0  0  0
  1 19  1  0  0  0  0
  1  2  1  0  0  0  0
 22 24  1  0  0  0  0
 11 12  1  0  0  0  0
 24 25  1  0  0  0  0
  5  1  2  0  0  0  0
 24 26  1  0  0  0  0
 12 13  2  0  0  0  0
 24 27  1  0  0  0  0
  2  3  2  0  0  0  0
  8 28  1  0  0  0  0
 13 14  1  0  0  0  0
 28 29  1  0  0  0  0
 28 30  2  0  0  0  0
 14 15  2  0  0  0  0
 29 31  1  0  0  0  0
 15 10  1  0  0  0  0
 31 32  1  0  0  0  0
  2 10  1  0  0  0  0
 32 33  1  0  0  0  0
M  END
> <From> 
www.bindingDB.org

> <BindingDB Reactant_set_id>
50945990

> <Ligand InChI>
InChI=1S/C21H17F3N6O3/c1-2-4-26-19(31)15-7-13-17(30-5-3-16(29-30)21(22,23)24)14(10-27-18(13)28-15)11-6-12(20(32)33)9-25-8-11/h3,5-10H,2,4H2,1H3,(H,26,31)(H,27,28)(H,32,33)

> <Ligand InChI Key>
LZUVYNLKKXOOOT-UHFFFAOYSA-N

> <BindingDB MonomerID>
50388093

> <BindingDB Ligand Name>
CHEMBL2059197

> <Target Name Assigned by Curator or DataSource>
DNA Gyrase Subunit B

> <Target Source Organism According to Curator or DataSource>
Staphylococcus aureus

> <Ki (nM)>


> <IC50 (nM)>
 58

> <Kd (nM)>


> <EC50 (nM)>


> <kon (M-1-s-1)>


> <koff (s-1)>


> <pH>


> <Temp C>


> <Curation/DataSource>
ChEMBL

> <Article DOI>
10.1016/j.bmcl.2012.05.128

> <PMID>
22814212

> <PubChem AID>


> <Patent Number>


> <Authors>
Manchester, JI; Dussault, DD; Rose, JA; Boriack-Sjodin, PA; Uria-Nickelsen, M; Ioannidis, G; Bist, S; Fleming, P; Hull, KG

> <Institution>
AstraZeneca

> <Link to Ligand in BindingDB>
http://www.bindingdb.org/bind/chemsearch/marvin/MolStructure.jsp?monomerid=50388093

> <Link to Ligand-Target Pair in BindingDB>
http://www.bindingdb.org/jsp/dbsearch/PrimarySearch_ki.jsp?energyterm=kJ/mole&tag=pol&polymerid=2626&target=DNA+Gyrase+Subunit+B&column=ki&startPg=0&Increment=50&submit=Search

> <Link to Ligand-Target Pair in BindingDB>
http://www.bindingdb.org/jsp/dbsearch/PrimarySearch_ki.jsp?energyterm=kJ/mole&tag=r21&monomerid=50388093&enzyme=DNA+Gyrase+Subunit+B&column=ki&startPg=0&Increment=50&submit=Search

> <Ligand HET ID in PDB>


> <PDB ID(s) for Ligand-Target Complex>


> <PubChem CID>
62705686

> <PubChem SID>
160867176

> <ChEBI ID of Ligand>


> <ChEMBL ID of Ligand>
CHEMBL2059197

> <DrugBank ID of Ligand>


> <IUPHAR_GRAC ID of Ligand>


> <KEGG ID of Ligand>


> <ZINC ID of Ligand>
ZINC84705061

> <Number of Protein Chains in Target (>1 implies a multichain complex)>
1

> <BindingDB Target Chain Sequence>
MVTALSDVNNTDNYGAGQIQVLEGLEAVRKRPGMYIGSTSERGLHHLVWEIVDNSIDEALAGYANQIEVVIEKDNWIKVTDNGRGIPVDIQEKMGRPAVEVILTVLHAGGKFGGGGYKVSGGLHGVGSSVVNALSQDLEVYVHRNETIYHQAYKKGVPQFDLKEVGTTDKTGTVIRFKADGEIFTETTVYNYETLQQRIRELAFLNKGIQITLRDERDEENVREDSYHYEGGIKSYVELLNENKEPIHDEPIYIHQSKDDIEVEIAIQYNSGYATNLLTYANNIHTYEGGTHEDGFKRALTRVLNSYGLSSKIMKEEKDRLSGEDTREGMTAIISIKHGDPQFEGQTKTKLGNSEVRQVVDKLFSEHFERFLYENPQVARTVVEKGIMAARARVAAKKAREVTRRKSALDVASLPGKLADCSSKSPEECEIFLVEGDSAGGSTKSGRDSRTQAILPLRGKILNVEKARLDRILNNNEIRQMITAFGTGIGGDFDLAKARYHKIVIMTDADVDGAHIRTLLLTFFYRFMRPLIEAGYVYIAQPPLYKLTQGKQKYYVYNDRELDKLKSELNPTPKWSIARYKGLGEMNADQLWETTMNPEHRALLQVKLEDAIEADQTFEMLMGDVVENRRQFIEDNAVYANLDF

> <PDB ID(s) of Target Chain>


> <UniProt (SwissProt) Recommended Name of Target Chain>
DNA gyrase subunit B

> <UniProt (SwissProt) Entry Name of Target Chain>
GYRB_STAAU

> <UniProt (SwissProt) Primary ID of Target Chain>
P0A0K8

> <UniProt (SwissProt) Secondary ID(s) of Target Chain>
P20832

> <UniProt (SwissProt) Alternative ID(s) of Target Chain>


> <UniProt (TrEMBL) Submitted Name of Target Chain>


> <UniProt (TrEMBL) Entry Name of Target Chain>


> <UniProt (TrEMBL) Primary ID of Target Chain>


> <UniProt (TrEMBL) Secondary ID(s) of Target Chain>


> <UniProt (TrEMBL) Alternative ID(s) of Target Chain>


$$$$

  SciTegic12211703312D

 25 27  0  0  0  0            999 V2000
   10.7364  -11.1414    0.0000 O   0  0
   10.3278  -10.4323    0.0000 C   0  0
    9.5106  -10.4323    0.0000 C   0  0
    9.0305   -9.7732    0.0000 C   0  0
    8.2533  -10.0237    0.0000 C   0  0
    7.5900   -9.5436    0.0000 Br  0  0
    8.2533  -10.8409    0.0000 C   0  0
    7.5900  -11.3210    0.0000 Br  0  0
    9.0305  -11.0914    0.0000 N   0  0
   10.7364   -9.7232    0.0000 N   0  0
   11.5536   -9.7232    0.0000 C   0  0
   12.0338  -10.3865    0.0000 N   0  0
   12.8110  -10.1318    0.0000 C   0  0
   13.5201  -10.5404    0.0000 C   0  0
   14.2250  -10.1318    0.0000 C   0  0
   14.2250   -9.3146    0.0000 C   0  0
   14.9341   -8.9060    0.0000 N   0  0
   15.6432   -9.3146    0.0000 C   0  0
   15.6432  -10.1318    0.0000 C   0  0
   14.9341  -10.5404    0.0000 O   0  0
   16.3482  -10.5404    0.0000 O   0  0
   16.3482   -8.9060    0.0000 O   0  0
   13.5201   -8.9060    0.0000 C   0  0
   12.8110   -9.3146    0.0000 C   0  0
   12.0338   -9.0641    0.0000 S   0  0
  1  2  2  0
  2  3  1  0
  3  4  2  0
  4  5  1  0
  5  6  1  0
  5  7  2  0
  7  8  1  0
  7  9  1  0
  3  9  1  0
  2 10  1  0
 10 11  1  0
 11 12  2  0
 12 13  1  0
 13 14  2  0
 14 15  1  0
 15 16  2  0
 16 17  1  0
 17 18  1  0
 18 19  1  0
 19 20  1  0
 19 21  2  0
 18 22  2  0
 16 23  1  0
 23 24  2  0
 13 24  1  0
 24 25  1  0
 11 25  1  0
M  END
> <From> 
www.bindingDB.org

> <BindingDB Reactant_set_id>
50524108

> <Ligand InChI>
InChI=1S/C14H8Br2N4O4S/c15-6-4-8(18-10(6)16)11(21)20-14-19-7-2-1-5(3-9(7)25-14)17-12(22)13(23)24/h1-4,18H,(H,17,22)(H,23,24)(H,19,20,21)

> <Ligand InChI Key>
ZDVZBRWEKLWNNU-UHFFFAOYSA-N

> <BindingDB MonomerID>
50198240

> <BindingDB Ligand Name>
CHEMBL3908487

> <Target Name Assigned by Curator or DataSource>
DNA Gyrase Subunit B

> <Target Source Organism According to Curator or DataSource>
Escherichia coli

> <Ki (nM)>


> <IC50 (nM)>
 58

> <Kd (nM)>


> <EC50 (nM)>


> <kon (M-1-s-1)>


> <koff (s-1)>


> <pH>


> <Temp C>


> <Curation/DataSource>
ChEMBL

> <Article DOI>
10.1021/acs.jmedchem.6b00864

> <PMID>
27541007

> <PubChem AID>


> <Patent Number>


> <Authors>
Gjorgjieva, M; Tomaic, T; Barancokova, M; Katsamakas, S; Ila, J; Tammela, P; Peterlin Maic, L; Kikelj, D

> <Institution>
University of Ljubljana

> <Link to Ligand in BindingDB>
http://www.bindingdb.org/bind/chemsearch/marvin/MolStructure.jsp?monomerid=50198240

> <Link to Ligand-Target Pair in BindingDB>
http://www.bindingdb.org/jsp/dbsearch/PrimarySearch_ki.jsp?energyterm=kJ/mole&tag=pol&polymerid=2630&target=DNA+Gyrase+Subunit+B&column=ki&startPg=0&Increment=50&submit=Search

> <Link to Ligand-Target Pair in BindingDB>
http://www.bindingdb.org/jsp/dbsearch/PrimarySearch_ki.jsp?energyterm=kJ/mole&tag=r21&monomerid=50198240&enzyme=DNA+Gyrase+Subunit+B&column=ki&startPg=0&Increment=50&submit=Search

> <Ligand HET ID in PDB>
6G9

> <PDB ID(s) for Ligand-Target Complex>
5L3J

> <PubChem CID>
121499169

> <PubChem SID>
375978192

> <ChEBI ID of Ligand>


> <ChEMBL ID of Ligand>


> <DrugBank ID of Ligand>


> <IUPHAR_GRAC ID of Ligand>


> <KEGG ID of Ligand>


> <ZINC ID of Ligand>


> <Number of Protein Chains in Target (>1 implies a multichain complex)>
1

> <BindingDB Target Chain Sequence>
MSNSYDSSSIKVLKGLDAVRKRPGMYIGDTDDGTGLHHMVFEVVDNAIDEALAGHCKEII
VTIHADNSVSVQDDGRGIPTGIHPEEGVSAAEVIMTVLHAGGKFDDNSYKVSGGLHGVGV
SVVNALSQKLELVIQREGKIHRQIYEHGVPQAPLAVTGETEKTGTMVRFWPSLETFTNVT
EFEYEILAKRLRELSFLNSGVSIRLRDKRDGKEDHFHYEGGIKAFVEYLNKNKTPIHPNI
FYFSTEKDGIGVEVALQWNDGFQENIYCFTNNIPQRDGGTHLAGFRAAMTRTLNAYMDKE
GYSKKAKVSATGDDAREGLIAVVSVKVPDPKFSSQTKDKLVSSEVKSAVEQQMNELLAEY
LLENPTDAKIVVGKIIDAARAREAARRAREMTRRKGALDLAGLPGKLADCQERDPALSEL
YLVEGDSAGGSAKQGRNRKNQAILPLKGKILNVEKARFDKMLSSQEVATLITALGCGIGR
DEYNPDKLRYHSIIIMTDADVDGSHIRTLLLTFFYRQMPEIVERGHVYIAQPPLYKVKKG
KQEQYIKDDEAMDQYQISIALDGATLHTNASAPALAGEALEKLVSEYNATQKMINRMERR
YPKAMLKELIYQPTLTEADLSDEQTVTRWVNALVSELNDKEQHGSQWKFDVHTNAEQNLF
EPIVRVRTHGVDTDYPLDHEFITGGEYRRICTLGEKLRGLLEEDAFIERGERRQPVASFE
QALDWLVKESRRGLSIQRYKGLGEMNPEQLWETTMDPESRRMLRVTVKDAIAADQLFTTL
MGDAVEPRRAFIEENALKAANIDI

> <PDB ID(s) of Target Chain>
1KZN,3G7E,3NUH,4DUH,4HYP,4KFG,4PRV,4PRX,4PU9,4WUB,4WUC,4WUD,4XTJ,4ZVI,5L3J,5MMN,5MMO,5MMP,5Z4H,5Z4O,5Z9B,5Z9E,5Z9F,5Z9L,5Z9M,5Z9N,5Z9Q,6ENG,6F86,6F8J,6F94,6F96

> <UniProt (SwissProt) Recommended Name of Target Chain>
DNA gyrase subunit B

> <UniProt (SwissProt) Entry Name of Target Chain>
GYRB_ECOLI

> <UniProt (SwissProt) Primary ID of Target Chain>
P0AES6

> <UniProt (SwissProt) Secondary ID(s) of Target Chain>
O08438,P06982,Q2M811

> <UniProt (SwissProt) Alternative ID(s) of Target Chain>


> <UniProt (TrEMBL) Submitted Name of Target Chain>


> <UniProt (TrEMBL) Entry Name of Target Chain>


> <UniProt (TrEMBL) Primary ID of Target Chain>


> <UniProt (TrEMBL) Secondary ID(s) of Target Chain>


> <UniProt (TrEMBL) Alternative ID(s) of Target Chain>


$$$$

  SciTegic09261414462D

 27 29  0  0  0  0            999 V2000
   26.4128  -28.2880    0.0000 C   0  0
   26.4117  -29.1075    0.0000 C   0  0
   27.1197  -29.5165    0.0000 C   0  0
   27.8294  -29.1071    0.0000 C   0  0
   27.8266  -28.2844    0.0000 C   0  0
   27.1180  -27.8791    0.0000 N   0  0
   25.7050  -27.8796    0.0000 N   0  0
   24.9974  -28.2883    0.0000 C   0  0
   24.2896  -27.8799    0.0000 N   0  0
   24.9976  -29.1055    0.0000 O   0  0
   23.5820  -28.2887    0.0000 C   0  0
   22.8742  -27.8802    0.0000 C   0  0
   28.5342  -29.5138    0.0000 C   0  0
   28.5342  -30.3321    0.0000 C   0  0
   29.2417  -30.7395    0.0000 N   0  0
   29.9498  -30.3297    0.0000 C   0  0
   29.9458  -29.5083    0.0000 C   0  0
   29.2377  -29.1046    0.0000 C   0  0
   30.6514  -29.0961    0.0000 C   0  0
   31.3612  -29.5011    0.0000 O   0  0
   30.6473  -28.2789    0.0000 O   0  0
   27.1214  -30.3315    0.0000 C   0  0
   26.4120  -30.7393    0.0000 C   0  0
   26.4114  -31.5558    0.0000 C   0  0
   27.1196  -31.9653    0.0000 C   0  0
   27.8297  -31.5525    0.0000 C   0  0
   27.8268  -30.7375    0.0000 C   0  0
  1  2  2  0
  2  3  1  0
  3  4  2  0
  4  5  1  0
  5  6  2  0
  6  1  1  0
  1  7  1  0
  7  8  1  0
  8  9  1  0
  8 10  2  0
  9 11  1  0
 11 12  1  0
 13 14  2  0
 14 15  1  0
 15 16  2  0
 16 17  1  0
 17 18  2  0
 18 13  1  0
  4 13  1  0
 17 19  1  0
 19 20  1  0
 19 21  2  0
 22 23  2  0
 23 24  1  0
 24 25  2  0
 25 26  1  0
 26 27  2  0
 27 22  1  0
  3 22  1  0
M  END
> <From> 
www.bindingDB.org

> <BindingDB Reactant_set_id>
50083267

> <Ligand InChI>
InChI=1S/C20H18N4O3/c1-2-22-20(27)24-18-9-16(13-6-4-3-5-7-13)17(12-23-18)14-8-15(19(25)26)11-21-10-14/h3-12H,2H2,1H3,(H,25,26)(H2,22,23,24,27)

> <Ligand InChI Key>
HGBUEIWFNDRSBG-UHFFFAOYSA-N

> <BindingDB MonomerID>
50006563

> <BindingDB Ligand Name>
CHEMBL3235083

> <Target Name Assigned by Curator or DataSource>
DNA Gyrase Subunit B

> <Target Source Organism According to Curator or DataSource>
Staphylococcus aureus

> <Ki (nM)>


> <IC50 (nM)>
 60

> <Kd (nM)>


> <EC50 (nM)>


> <kon (M-1-s-1)>


> <koff (s-1)>


> <pH>


> <Temp C>


> <Curation/DataSource>
ChEMBL

> <Article DOI>
10.1021/jm401208b

> <PMID>
24098982

> <PubChem AID>


> <Patent Number>


> <Authors>
Basarab, GS; Basarab, GS; Boriack-Sjodin, PA; Boriack-Sjodin, PA; Illingworth, R; Illingworth, R; Manchester, JI; Manchester, JI; Dangel, B; Dangel, B; Sriram, S; Sriram, S

> <Institution>
AstraZeneca R&amp;D Boston

> <Link to Ligand in BindingDB>
http://www.bindingdb.org/bind/chemsearch/marvin/MolStructure.jsp?monomerid=50006563

> <Link to Ligand-Target Pair in BindingDB>
http://www.bindingdb.org/jsp/dbsearch/PrimarySearch_ki.jsp?energyterm=kJ/mole&tag=pol&polymerid=2626&target=DNA+Gyrase+Subunit+B&column=ki&startPg=0&Increment=50&submit=Search

> <Link to Ligand-Target Pair in BindingDB>
http://www.bindingdb.org/jsp/dbsearch/PrimarySearch_ki.jsp?energyterm=kJ/mole&tag=r21&monomerid=50006563&enzyme=DNA+Gyrase+Subunit+B&column=ki&startPg=0&Increment=50&submit=Search

> <Ligand HET ID in PDB>


> <PDB ID(s) for Ligand-Target Complex>


> <PubChem CID>
59208494

> <PubChem SID>
103919964

> <ChEBI ID of Ligand>


> <ChEMBL ID of Ligand>
CHEMBL3235083

> <DrugBank ID of Ligand>


> <IUPHAR_GRAC ID of Ligand>


> <KEGG ID of Ligand>


> <ZINC ID of Ligand>
ZINC26295197

> <Number of Protein Chains in Target (>1 implies a multichain complex)>
1

> <BindingDB Target Chain Sequence>
MVTALSDVNNTDNYGAGQIQVLEGLEAVRKRPGMYIGSTSERGLHHLVWEIVDNSIDEALAGYANQIEVVIEKDNWIKVTDNGRGIPVDIQEKMGRPAVEVILTVLHAGGKFGGGGYKVSGGLHGVGSSVVNALSQDLEVYVHRNETIYHQAYKKGVPQFDLKEVGTTDKTGTVIRFKADGEIFTETTVYNYETLQQRIRELAFLNKGIQITLRDERDEENVREDSYHYEGGIKSYVELLNENKEPIHDEPIYIHQSKDDIEVEIAIQYNSGYATNLLTYANNIHTYEGGTHEDGFKRALTRVLNSYGLSSKIMKEEKDRLSGEDTREGMTAIISIKHGDPQFEGQTKTKLGNSEVRQVVDKLFSEHFERFLYENPQVARTVVEKGIMAARARVAAKKAREVTRRKSALDVASLPGKLADCSSKSPEECEIFLVEGDSAGGSTKSGRDSRTQAILPLRGKILNVEKARLDRILNNNEIRQMITAFGTGIGGDFDLAKARYHKIVIMTDADVDGAHIRTLLLTFFYRFMRPLIEAGYVYIAQPPLYKLTQGKQKYYVYNDRELDKLKSELNPTPKWSIARYKGLGEMNADQLWETTMNPEHRALLQVKLEDAIEADQTFEMLMGDVVENRRQFIEDNAVYANLDF

> <PDB ID(s) of Target Chain>


> <UniProt (SwissProt) Recommended Name of Target Chain>
DNA gyrase subunit B

> <UniProt (SwissProt) Entry Name of Target Chain>
GYRB_STAAU

> <UniProt (SwissProt) Primary ID of Target Chain>
P0A0K8

> <UniProt (SwissProt) Secondary ID(s) of Target Chain>
P20832

> <UniProt (SwissProt) Alternative ID(s) of Target Chain>


> <UniProt (TrEMBL) Submitted Name of Target Chain>


> <UniProt (TrEMBL) Entry Name of Target Chain>


> <UniProt (TrEMBL) Primary ID of Target Chain>


> <UniProt (TrEMBL) Secondary ID(s) of Target Chain>


> <UniProt (TrEMBL) Alternative ID(s) of Target Chain>


$$$$

  Mrv0541 11231422262D          

 25 27  0  0  0  0            999 V2000
   -4.2205   -8.5825    0.0000 N   0  0  0  0  0  0  0  0  0  0  0  0
   -4.8937   -8.0958    0.0000 C   0  0  0  0  0  0  0  0  0  0  0  0
   -4.6370   -7.3076    0.0000 C   0  0  0  0  0  0  0  0  0  0  0  0
   -3.8080   -7.3076    0.0000 C   0  0  0  0  0  0  0  0  0  0  0  0
   -3.5514   -8.0963    0.0000 C   0  0  0  0  0  0  0  0  0  0  0  0
   -5.6780   -8.3514    0.0000 C   0  0  0  0  0  0  0  0  0  0  0  0
   -2.8346   -8.5046    0.0000 C   0  0  0  0  0  0  0  0  0  0  0  0
   -2.8298   -9.3295    0.0000 O   0  0  0  0  0  0  0  0  0  0  0  0
   -2.1227   -8.0879    0.0000 N   0  0  0  0  0  0  0  0  0  0  0  0
   -1.4059   -8.4962    0.0000 C   0  0  0  0  0  0  0  0  0  0  0  0
   -1.4047   -9.3232    0.0000 C   0  0  0  0  0  0  0  0  0  0  0  0
   -0.6920   -9.7314    0.0000 C   0  0  0  0  0  0  0  0  0  0  0  0
    0.0224   -9.3183    0.0000 N   0  0  0  0  0  0  0  0  0  0  0  0
    0.0196   -8.4924    0.0000 C   0  0  0  0  0  0  0  0  0  0  0  0
   -0.6977   -8.0796    0.0000 C   0  0  0  0  0  0  0  0  0  0  0  0
    0.7379   -9.7291    0.0000 C   0  0  0  0  0  0  0  0  0  0  0  0
   -5.1217   -6.6400    0.0000 Cl  0  0  0  0  0  0  0  0  0  0  0  0
   -3.3233   -6.6401    0.0000 Cl  0  0  0  0  0  0  0  0  0  0  0  0
    1.0005  -10.5108    0.0000 S   0  0  0  0  0  0  0  0  0  0  0  0
    1.8253  -10.5038    0.0000 C   0  0  0  0  0  0  0  0  0  0  0  0
    2.0736   -9.7169    0.0000 C   0  0  0  0  0  0  0  0  0  0  0  0
    1.4020   -9.2380    0.0000 N   0  0  0  0  0  0  0  0  0  0  0  0
    2.2346  -11.2200    0.0000 C   0  0  0  0  0  0  0  0  0  0  0  0
    1.8189  -11.9325    0.0000 O   0  0  0  0  0  0  0  0  0  0  0  0
    3.0595  -11.2237    0.0000 O   0  0  0  0  0  0  0  0  0  0  0  0
  5  7  1  0  0  0  0
 10 15  1  0  0  0  0
 11 12  1  0  0  0  0
 12 13  1  0  0  0  0
 13 14  1  0  0  0  0
 14 15  1  0  0  0  0
  1  2  1  0  0  0  0
 13 16  1  0  0  0  0
  7  8  2  0  0  0  0
  3 17  1  0  0  0  0
  3  4  1  0  0  0  0
  4 18  1  0  0  0  0
 16 19  1  0  0  0  0
  7  9  1  0  0  0  0
  4  5  2  0  0  0  0
  9 10  1  0  0  0  0
 10 11  1  0  0  0  0
 19 20  1  0  0  0  0
 20 21  2  0  0  0  0
 21 22  1  0  0  0  0
 22 16  2  0  0  0  0
  5  1  1  0  0  0  0
 20 23  1  0  0  0  0
  2  3  2  0  0  0  0
 23 24  2  0  0  0  0
  2  6  1  0  0  0  0
 23 25  1  0  0  0  0
M  END
> <From> 
www.bindingDB.org

> <BindingDB Reactant_set_id>
50271379

> <Ligand InChI>
InChI=1S/C15H16Cl2N4O3S/c1-7-10(16)11(17)12(19-7)13(22)20-8-2-4-21(5-3-8)15-18-6-9(25-15)14(23)24/h6,8,19H,2-5H2,1H3,(H,20,22)(H,23,24)

> <Ligand InChI Key>
DCKPCHMCUFLQER-UHFFFAOYSA-N

> <BindingDB MonomerID>
50358848

> <BindingDB Ligand Name>
CHEMBL1923433

> <Target Name Assigned by Curator or DataSource>
DNA Gyrase Subunit B

> <Target Source Organism According to Curator or DataSource>
Staphylococcus aureus

> <Ki (nM)>


> <IC50 (nM)>
 62

> <Kd (nM)>


> <EC50 (nM)>


> <kon (M-1-s-1)>


> <koff (s-1)>


> <pH>


> <Temp C>


> <Curation/DataSource>
ChEMBL

> <Article DOI>
10.1021/jm500462x

> <PMID>
24959892

> <PubChem AID>


> <Patent Number>


> <Authors>
Basarab, GS; Hill, PJ; Garner, CE; Hull, K; Green, O; Sherer, BA; Dangel, PB; Manchester, JI; Bist, S; Hauck, S; Zhou, F; Uria-Nickelsen, M; Illingworth, R; Alm, R; Rooney, M; Eakin, AE

> <Institution>
AstraZeneca

> <Link to Ligand in BindingDB>
http://www.bindingdb.org/bind/chemsearch/marvin/MolStructure.jsp?monomerid=50358848

> <Link to Ligand-Target Pair in BindingDB>
http://www.bindingdb.org/jsp/dbsearch/PrimarySearch_ki.jsp?energyterm=kJ/mole&tag=pol&polymerid=2626&target=DNA+Gyrase+Subunit+B&column=ki&startPg=0&Increment=50&submit=Search

> <Link to Ligand-Target Pair in BindingDB>
http://www.bindingdb.org/jsp/dbsearch/PrimarySearch_ki.jsp?energyterm=kJ/mole&tag=r21&monomerid=50358848&enzyme=DNA+Gyrase+Subunit+B&column=ki&startPg=0&Increment=50&submit=Search

> <Ligand HET ID in PDB>


> <PDB ID(s) for Ligand-Target Complex>


> <PubChem CID>
11463807

> <PubChem SID>
136962872

> <ChEBI ID of Ligand>


> <ChEMBL ID of Ligand>
CHEMBL1923433

> <DrugBank ID of Ligand>


> <IUPHAR_GRAC ID of Ligand>


> <KEGG ID of Ligand>


> <ZINC ID of Ligand>
ZINC34576038

> <Number of Protein Chains in Target (>1 implies a multichain complex)>
1

> <BindingDB Target Chain Sequence>
MVTALSDVNNTDNYGAGQIQVLEGLEAVRKRPGMYIGSTSERGLHHLVWEIVDNSIDEALAGYANQIEVVIEKDNWIKVTDNGRGIPVDIQEKMGRPAVEVILTVLHAGGKFGGGGYKVSGGLHGVGSSVVNALSQDLEVYVHRNETIYHQAYKKGVPQFDLKEVGTTDKTGTVIRFKADGEIFTETTVYNYETLQQRIRELAFLNKGIQITLRDERDEENVREDSYHYEGGIKSYVELLNENKEPIHDEPIYIHQSKDDIEVEIAIQYNSGYATNLLTYANNIHTYEGGTHEDGFKRALTRVLNSYGLSSKIMKEEKDRLSGEDTREGMTAIISIKHGDPQFEGQTKTKLGNSEVRQVVDKLFSEHFERFLYENPQVARTVVEKGIMAARARVAAKKAREVTRRKSALDVASLPGKLADCSSKSPEECEIFLVEGDSAGGSTKSGRDSRTQAILPLRGKILNVEKARLDRILNNNEIRQMITAFGTGIGGDFDLAKARYHKIVIMTDADVDGAHIRTLLLTFFYRFMRPLIEAGYVYIAQPPLYKLTQGKQKYYVYNDRELDKLKSELNPTPKWSIARYKGLGEMNADQLWETTMNPEHRALLQVKLEDAIEADQTFEMLMGDVVENRRQFIEDNAVYANLDF

> <PDB ID(s) of Target Chain>


> <UniProt (SwissProt) Recommended Name of Target Chain>
DNA gyrase subunit B

> <UniProt (SwissProt) Entry Name of Target Chain>
GYRB_STAAU

> <UniProt (SwissProt) Primary ID of Target Chain>
P0A0K8

> <UniProt (SwissProt) Secondary ID(s) of Target Chain>
P20832

> <UniProt (SwissProt) Alternative ID(s) of Target Chain>


> <UniProt (TrEMBL) Submitted Name of Target Chain>


> <UniProt (TrEMBL) Entry Name of Target Chain>


> <UniProt (TrEMBL) Primary ID of Target Chain>


> <UniProt (TrEMBL) Secondary ID(s) of Target Chain>


> <UniProt (TrEMBL) Alternative ID(s) of Target Chain>


$$$$

  Mrv0541 11231413392D          

 46 50  0  0  0  0            999 V2000
   -1.0735  -10.8437    0.0000 C   0  0  0  0  0  0  0  0  0  0  0  0
   -1.7995  -10.4421    0.0000 C   0  0  1  0  0  0  0  0  0  0  0  0
   -2.5062  -10.8677    0.0000 C   0  0  2  0  0  0  0  0  0  0  0  0
   -2.4933  -11.6965    0.0000 C   0  0  2  0  0  0  0  0  0  0  0  0
   -1.7674  -12.0980    0.0000 C   0  0  1  0  0  0  0  0  0  0  0  0
   -1.0543  -11.6708    0.0000 O   0  0  0  0  0  0  0  0  0  0  0  0
   -1.7531  -12.9229    0.0000 O   0  0  0  0  0  0  0  0  0  0  0  0
   -1.0333  -13.3342    0.0000 C   0  0  0  0  0  0  0  0  0  0  0  0
   -1.0341  -14.1588    0.0000 C   0  0  0  0  0  0  0  0  0  0  0  0
   -0.3184  -12.9199    0.0000 C   0  0  0  0  0  0  0  0  0  0  0  0
    0.3960  -13.3377    0.0000 C   0  0  0  0  0  0  0  0  0  0  0  0
    0.3941  -14.1624    0.0000 C   0  0  0  0  0  0  0  0  0  0  0  0
   -0.3211  -14.5739    0.0000 C   0  0  0  0  0  0  0  0  0  0  0  0
   -0.3223  -15.3946    0.0000 O   0  0  0  0  0  0  0  0  0  0  0  0
    0.3901  -15.8099    0.0000 C   0  0  0  0  0  0  0  0  0  0  0  0
    1.1053  -15.3984    0.0000 C   0  0  0  0  0  0  0  0  0  0  0  0
    1.1082  -14.5715    0.0000 C   0  0  0  0  0  0  0  0  0  0  0  0
   -1.7494  -14.5696    0.0000 Cl  0  0  0  0  0  0  0  0  0  0  0  0
    1.8227  -14.1591    0.0000 O   0  0  0  0  0  0  0  0  0  0  0  0
    0.3876  -16.6349    0.0000 O   0  0  0  0  0  0  0  0  0  0  0  0
    1.8187  -15.8127    0.0000 N   0  0  0  0  0  0  0  0  0  0  0  0
    1.8166  -16.6377    0.0000 C   0  0  0  0  0  0  0  0  0  0  0  0
    1.1012  -17.0483    0.0000 O   0  0  0  0  0  0  0  0  0  0  0  0
    2.5301  -17.0519    0.0000 C   0  0  0  0  0  0  0  0  0  0  0  0
    2.5251  -17.8761    0.0000 C   0  0  0  0  0  0  0  0  0  0  0  0
    3.2377  -18.2903    0.0000 C   0  0  0  0  0  0  0  0  0  0  0  0
    3.9542  -17.8796    0.0000 C   0  0  0  0  0  0  0  0  0  0  0  0
    3.9536  -17.0503    0.0000 C   0  0  0  0  0  0  0  0  0  0  0  0
    3.2405  -16.6398    0.0000 C   0  0  0  0  0  0  0  0  0  0  0  0
    4.6683  -18.2928    0.0000 O   0  0  0  0  0  0  0  0  0  0  0  0
    4.6677  -16.6370    0.0000 C   0  0  0  0  0  0  0  0  0  0  0  0
   -0.2460  -10.8248    0.0000 C   0  0  0  0  0  0  0  0  0  0  0  0
   -1.0844  -10.0206    0.0000 C   0  0  0  0  0  0  0  0  0  0  0  0
   -1.8145   -9.6173    0.0000 O   0  0  0  0  0  0  0  0  0  0  0  0
   -1.1078   -9.1917    0.0000 C   0  0  0  0  0  0  0  0  0  0  0  0
   -3.2276  -10.4673    0.0000 O   0  0  0  0  0  0  0  0  0  0  0  0
   -3.2416   -9.6424    0.0000 C   0  0  0  0  0  0  0  0  0  0  0  0
   -3.9626   -9.2418    0.0000 C   0  0  0  0  0  0  0  0  0  0  0  0
   -2.5342   -9.2179    0.0000 O   0  0  0  0  0  0  0  0  0  0  0  0
   -3.2006  -12.1211    0.0000 O   0  0  0  0  0  0  0  0  0  0  0  0
    3.2353  -19.1153    0.0000 C   0  0  0  0  0  0  0  0  0  0  0  0
   -4.1984   -8.4483    0.0000 C   0  0  0  0  0  0  0  0  0  0  0  0
   -5.0231   -8.4252    0.0000 C   0  0  0  0  0  0  0  0  0  0  0  0
   -5.2999   -9.2024    0.0000 C   0  0  0  0  0  0  0  0  0  0  0  0
   -4.6463   -9.7057    0.0000 N   0  0  0  0  0  0  0  0  0  0  0  0
   -6.0178   -9.6065    0.0000 C   0  0  0  0  0  0  0  0  0  0  0  0
 21 22  1  0  0  0  0
 11 10  1  0  0  0  0
 22 23  2  0  0  0  0
 11 12  2  0  0  0  0
 22 24  1  0  0  0  0
  3  4  1  0  0  0  0
 24 25  2  0  0  0  0
 12 13  1  0  0  0  0
 25 26  1  0  0  0  0
  4  5  1  0  0  0  0
 26 27  2  0  0  0  0
  5  6  1  0  0  0  0
 27 28  1  0  0  0  0
 28 29  2  0  0  0  0
 29 24  1  0  0  0  0
  5  7  1  1  0  0  0
 27 30  1  0  0  0  0
  2  1  1  0  0  0  0
 28 31  1  0  0  0  0
  7  8  1  0  0  0  0
  1 32  1  0  0  0  0
 12 17  1  0  0  0  0
  1 33  1  0  0  0  0
 13 14  1  0  0  0  0
  2 34  1  1  0  0  0
 14 15  1  0  0  0  0
 34 35  1  0  0  0  0
 15 16  1  0  0  0  0
  3 36  1  6  0  0  0
 16 17  2  0  0  0  0
 36 37  1  0  0  0  0
  8  9  1  0  0  0  0
 37 38  1  0  0  0  0
  9 18  1  0  0  0  0
 37 39  2  0  0  0  0
  1  6  1  0  0  0  0
  4 40  1  6  0  0  0
 17 19  1  0  0  0  0
 26 41  1  0  0  0  0
 38 42  2  0  0  0  0
  3  2  1  0  0  0  0
 15 20  2  0  0  0  0
  8 10  2  0  0  0  0
 16 21  1  0  0  0  0
 42 43  1  0  0  0  0
 43 44  2  0  0  0  0
 44 45  1  0  0  0  0
 45 38  1  0  0  0  0
  9 13  2  0  0  0  0
 44 46  1  0  0  0  0
M  END
> <From> 
www.bindingDB.org

> <BindingDB Reactant_set_id>
50607690

> <Ligand InChI>
InChI=1S/C32H33ClN2O11/c1-13-11-16(12-14(2)22(13)36)28(39)35-21-23(37)17-8-10-19(20(33)25(17)44-30(21)41)43-31-24(38)26(27(42-6)32(4,5)46-31)45-29(40)18-9-7-15(3)34-18/h7-12,24,26-27,31,34,36-38H,1-6H3,(H,35,39)/t24-,26+,27-,31-/m1/s1

> <Ligand InChI Key>
DOFGTZAYJOIEPN-PPOHMGSZSA-N

> <BindingDB MonomerID>
50330319

> <BindingDB Ligand Name>
(3R,4S,5R,6S)-6-(8-chloro-4-hydroxy-3-(4-hydroxy-3,5-dimethylbenzamido)-2-oxo-2H-chromen-7-yloxy)-5-hydroxy-3-methoxy-2,2-dimethyltetrahydro-2H-pyran-4-yl 5-methyl-1H-pyrrole-2-carboxylate::CHEMBL1275840

> <Target Name Assigned by Curator or DataSource>
DNA Gyrase Subunit B

> <Target Source Organism According to Curator or DataSource>
Escherichia coli

> <Ki (nM)>


> <IC50 (nM)>
 65

> <Kd (nM)>


> <EC50 (nM)>


> <kon (M-1-s-1)>


> <koff (s-1)>


> <pH>


> <Temp C>


> <Curation/DataSource>
ChEMBL

> <Article DOI>
10.1128/AAC.01235-07

> <PMID>
18347114

> <PubChem AID>


> <Patent Number>


> <Authors>
Anderle, C; Stieger, M; Burrell, M; Reinelt, S; Maxwell, A; Page, M; Heide, L

> <Institution>
Universit&#228;t T&#252;bingen

> <Link to Ligand in BindingDB>
http://www.bindingdb.org/bind/chemsearch/marvin/MolStructure.jsp?monomerid=50330319

> <Link to Ligand-Target Pair in BindingDB>
http://www.bindingdb.org/jsp/dbsearch/PrimarySearch_ki.jsp?energyterm=kJ/mole&tag=pol&polymerid=2630&target=DNA+Gyrase+Subunit+B&column=ki&startPg=0&Increment=50&submit=Search

> <Link to Ligand-Target Pair in BindingDB>
http://www.bindingdb.org/jsp/dbsearch/PrimarySearch_ki.jsp?energyterm=kJ/mole&tag=r21&monomerid=50330319&enzyme=DNA+Gyrase+Subunit+B&column=ki&startPg=0&Increment=50&submit=Search

> <Ligand HET ID in PDB>


> <PDB ID(s) for Ligand-Target Complex>


> <PubChem CID>
54729435

> <PubChem SID>
123109434

> <ChEBI ID of Ligand>


> <ChEMBL ID of Ligand>
CHEMBL1275840

> <DrugBank ID of Ligand>


> <IUPHAR_GRAC ID of Ligand>


> <KEGG ID of Ligand>


> <ZINC ID of Ligand>
ZINC72136417

> <Number of Protein Chains in Target (>1 implies a multichain complex)>
1

> <BindingDB Target Chain Sequence>
MSNSYDSSSIKVLKGLDAVRKRPGMYIGDTDDGTGLHHMVFEVVDNAIDEALAGHCKEII
VTIHADNSVSVQDDGRGIPTGIHPEEGVSAAEVIMTVLHAGGKFDDNSYKVSGGLHGVGV
SVVNALSQKLELVIQREGKIHRQIYEHGVPQAPLAVTGETEKTGTMVRFWPSLETFTNVT
EFEYEILAKRLRELSFLNSGVSIRLRDKRDGKEDHFHYEGGIKAFVEYLNKNKTPIHPNI
FYFSTEKDGIGVEVALQWNDGFQENIYCFTNNIPQRDGGTHLAGFRAAMTRTLNAYMDKE
GYSKKAKVSATGDDAREGLIAVVSVKVPDPKFSSQTKDKLVSSEVKSAVEQQMNELLAEY
LLENPTDAKIVVGKIIDAARAREAARRAREMTRRKGALDLAGLPGKLADCQERDPALSEL
YLVEGDSAGGSAKQGRNRKNQAILPLKGKILNVEKARFDKMLSSQEVATLITALGCGIGR
DEYNPDKLRYHSIIIMTDADVDGSHIRTLLLTFFYRQMPEIVERGHVYIAQPPLYKVKKG
KQEQYIKDDEAMDQYQISIALDGATLHTNASAPALAGEALEKLVSEYNATQKMINRMERR
YPKAMLKELIYQPTLTEADLSDEQTVTRWVNALVSELNDKEQHGSQWKFDVHTNAEQNLF
EPIVRVRTHGVDTDYPLDHEFITGGEYRRICTLGEKLRGLLEEDAFIERGERRQPVASFE
QALDWLVKESRRGLSIQRYKGLGEMNPEQLWETTMDPESRRMLRVTVKDAIAADQLFTTL
MGDAVEPRRAFIEENALKAANIDI

> <PDB ID(s) of Target Chain>
1KZN,3G7E,3NUH,4DUH,4HYP,4KFG,4PRV,4PRX,4PU9,4WUB,4WUC,4WUD,4XTJ,4ZVI,5L3J,5MMN,5MMO,5MMP,5Z4H,5Z4O,5Z9B,5Z9E,5Z9F,5Z9L,5Z9M,5Z9N,5Z9Q,6ENG,6F86,6F8J,6F94,6F96

> <UniProt (SwissProt) Recommended Name of Target Chain>
DNA gyrase subunit B

> <UniProt (SwissProt) Entry Name of Target Chain>
GYRB_ECOLI

> <UniProt (SwissProt) Primary ID of Target Chain>
P0AES6

> <UniProt (SwissProt) Secondary ID(s) of Target Chain>
O08438,P06982,Q2M811

> <UniProt (SwissProt) Alternative ID(s) of Target Chain>


> <UniProt (TrEMBL) Submitted Name of Target Chain>


> <UniProt (TrEMBL) Entry Name of Target Chain>


> <UniProt (TrEMBL) Primary ID of Target Chain>


> <UniProt (TrEMBL) Secondary ID(s) of Target Chain>


> <UniProt (TrEMBL) Alternative ID(s) of Target Chain>


$$$$

  Mrv0541 11231413392D          

 43 47  0  0  0  0            999 V2000
   12.2226    0.9446    0.0000 C   0  0  0  0  0  0  0  0  0  0  0  0
   11.4967    1.3461    0.0000 C   0  0  1  0  0  0  0  0  0  0  0  0
   10.7899    0.9206    0.0000 C   0  0  2  0  0  0  0  0  0  0  0  0
   10.8028    0.0917    0.0000 C   0  0  2  0  0  0  0  0  0  0  0  0
   11.5288   -0.3099    0.0000 C   0  0  1  0  0  0  0  0  0  0  0  0
   12.2418    0.1175    0.0000 O   0  0  0  0  0  0  0  0  0  0  0  0
   11.5431   -1.1347    0.0000 O   0  0  0  0  0  0  0  0  0  0  0  0
   12.2628   -1.5460    0.0000 C   0  0  0  0  0  0  0  0  0  0  0  0
   12.2620   -2.3705    0.0000 C   0  0  0  0  0  0  0  0  0  0  0  0
   12.9777   -1.1318    0.0000 C   0  0  0  0  0  0  0  0  0  0  0  0
   13.6921   -1.5494    0.0000 C   0  0  0  0  0  0  0  0  0  0  0  0
   13.6903   -2.3741    0.0000 C   0  0  0  0  0  0  0  0  0  0  0  0
   12.9750   -2.7857    0.0000 C   0  0  0  0  0  0  0  0  0  0  0  0
   12.9738   -3.6063    0.0000 O   0  0  0  0  0  0  0  0  0  0  0  0
   13.6862   -4.0217    0.0000 C   0  0  0  0  0  0  0  0  0  0  0  0
   14.4014   -3.6102    0.0000 C   0  0  0  0  0  0  0  0  0  0  0  0
   14.4044   -2.7833    0.0000 C   0  0  0  0  0  0  0  0  0  0  0  0
   15.1188   -2.3708    0.0000 O   0  0  0  0  0  0  0  0  0  0  0  0
   13.6838   -4.8467    0.0000 O   0  0  0  0  0  0  0  0  0  0  0  0
   15.1149   -4.0244    0.0000 N   0  0  0  0  0  0  0  0  0  0  0  0
   15.1128   -4.8494    0.0000 C   0  0  0  0  0  0  0  0  0  0  0  0
   14.3973   -5.2602    0.0000 O   0  0  0  0  0  0  0  0  0  0  0  0
   15.8262   -5.2637    0.0000 C   0  0  0  0  0  0  0  0  0  0  0  0
   15.8213   -6.0879    0.0000 C   0  0  0  0  0  0  0  0  0  0  0  0
   16.5338   -6.5020    0.0000 C   0  0  0  0  0  0  0  0  0  0  0  0
   17.2504   -6.0913    0.0000 C   0  0  0  0  0  0  0  0  0  0  0  0
   17.2498   -5.2620    0.0000 C   0  0  0  0  0  0  0  0  0  0  0  0
   16.5366   -4.8516    0.0000 C   0  0  0  0  0  0  0  0  0  0  0  0
   13.0502    0.9635    0.0000 C   0  0  0  0  0  0  0  0  0  0  0  0
   12.2118    1.7677    0.0000 C   0  0  0  0  0  0  0  0  0  0  0  0
   11.4816    2.1709    0.0000 O   0  0  0  0  0  0  0  0  0  0  0  0
   12.1883    2.5965    0.0000 C   0  0  0  0  0  0  0  0  0  0  0  0
   10.0685    1.3209    0.0000 O   0  0  0  0  0  0  0  0  0  0  0  0
   10.0546    2.1458    0.0000 C   0  0  0  0  0  0  0  0  0  0  0  0
    9.3335    2.5464    0.0000 C   0  0  0  0  0  0  0  0  0  0  0  0
   10.7620    2.5703    0.0000 O   0  0  0  0  0  0  0  0  0  0  0  0
   10.0955   -0.3329    0.0000 O   0  0  0  0  0  0  0  0  0  0  0  0
    9.0977    3.3400    0.0000 C   0  0  0  0  0  0  0  0  0  0  0  0
    8.2730    3.3631    0.0000 C   0  0  0  0  0  0  0  0  0  0  0  0
    7.9963    2.5859    0.0000 C   0  0  0  0  0  0  0  0  0  0  0  0
    8.6499    2.0825    0.0000 N   0  0  0  0  0  0  0  0  0  0  0  0
    7.2783    2.1816    0.0000 C   0  0  0  0  0  0  0  0  0  0  0  0
   11.5467   -2.7814    0.0000 Cl  0  0  0  0  0  0  0  0  0  0  0  0
  8 10  2  0  0  0  0
 20 21  1  0  0  0  0
  9 13  2  0  0  0  0
 21 22  2  0  0  0  0
 11 10  1  0  0  0  0
 21 23  1  0  0  0  0
 11 12  2  0  0  0  0
 23 24  2  0  0  0  0
  3  4  1  0  0  0  0
 24 25  1  0  0  0  0
 12 13  1  0  0  0  0
 25 26  2  0  0  0  0
  4  5  1  0  0  0  0
 26 27  1  0  0  0  0
  5  6  1  0  0  0  0
 27 28  2  0  0  0  0
 28 23  1  0  0  0  0
  1 29  1  0  0  0  0
  5  7  1  1  0  0  0
  1 30  1  0  0  0  0
  2  1  1  0  0  0  0
  2 31  1  1  0  0  0
  7  8  1  0  0  0  0
 31 32  1  0  0  0  0
 12 17  1  0  0  0  0
  3 33  1  6  0  0  0
 13 14  1  0  0  0  0
 33 34  1  0  0  0  0
 14 15  1  0  0  0  0
 34 35  1  0  0  0  0
 15 16  1  0  0  0  0
 34 36  2  0  0  0  0
 16 17  2  0  0  0  0
  4 37  1  6  0  0  0
 35 38  2  0  0  0  0
  8  9  1  0  0  0  0
 17 18  1  0  0  0  0
  1  6  1  0  0  0  0
 15 19  2  0  0  0  0
 38 39  1  0  0  0  0
 39 40  2  0  0  0  0
 40 41  1  0  0  0  0
 41 35  1  0  0  0  0
  3  2  1  0  0  0  0
 40 42  1  0  0  0  0
 16 20  1  0  0  0  0
  9 43  1  0  0  0  0
M  END
> <From> 
www.bindingDB.org

> <BindingDB Reactant_set_id>
50607689

> <Ligand InChI>
InChI=1S/C30H29ClN2O10/c1-14-10-12-17(32-14)27(37)42-24-22(35)29(43-30(2,3)25(24)39-4)40-18-13-11-16-21(34)20(28(38)41-23(16)19(18)31)33-26(36)15-8-6-5-7-9-15/h5-13,22,24-25,29,32,34-35H,1-4H3,(H,33,36)/t22-,24+,25-,29-/m1/s1

> <Ligand InChI Key>
KTLDPFKEVRZUGA-RUEQBBCHSA-N

> <BindingDB MonomerID>
50330318

> <BindingDB Ligand Name>
(3R,4S,5R,6S)-6-(3-benzamido-8-chloro-4-hydroxy-2-oxo-2H-chromen-7-yloxy)-5-hydroxy-3-methoxy-2,2-dimethyltetrahydro-2H-pyran-4-yl 5-methyl-1H-pyrrole-2-carboxylate::CHEMBL1275841

> <Target Name Assigned by Curator or DataSource>
DNA Gyrase Subunit B

> <Target Source Organism According to Curator or DataSource>
Escherichia coli

> <Ki (nM)>


> <IC50 (nM)>
 72

> <Kd (nM)>


> <EC50 (nM)>


> <kon (M-1-s-1)>


> <koff (s-1)>


> <pH>


> <Temp C>


> <Curation/DataSource>
ChEMBL

> <Article DOI>
10.1128/AAC.01235-07

> <PMID>
18347114

> <PubChem AID>


> <Patent Number>


> <Authors>
Anderle, C; Stieger, M; Burrell, M; Reinelt, S; Maxwell, A; Page, M; Heide, L

> <Institution>
Universit&#228;t T&#252;bingen

> <Link to Ligand in BindingDB>
http://www.bindingdb.org/bind/chemsearch/marvin/MolStructure.jsp?monomerid=50330318

> <Link to Ligand-Target Pair in BindingDB>
http://www.bindingdb.org/jsp/dbsearch/PrimarySearch_ki.jsp?energyterm=kJ/mole&tag=pol&polymerid=2630&target=DNA+Gyrase+Subunit+B&column=ki&startPg=0&Increment=50&submit=Search

> <Link to Ligand-Target Pair in BindingDB>
http://www.bindingdb.org/jsp/dbsearch/PrimarySearch_ki.jsp?energyterm=kJ/mole&tag=r21&monomerid=50330318&enzyme=DNA+Gyrase+Subunit+B&column=ki&startPg=0&Increment=50&submit=Search

> <Ligand HET ID in PDB>


> <PDB ID(s) for Ligand-Target Complex>


> <PubChem CID>
54732401

> <PubChem SID>
123109433

> <ChEBI ID of Ligand>


> <ChEMBL ID of Ligand>
CHEMBL1275841

> <DrugBank ID of Ligand>


> <IUPHAR_GRAC ID of Ligand>


> <KEGG ID of Ligand>


> <ZINC ID of Ligand>
ZINC64453962

> <Number of Protein Chains in Target (>1 implies a multichain complex)>
1

> <BindingDB Target Chain Sequence>
MSNSYDSSSIKVLKGLDAVRKRPGMYIGDTDDGTGLHHMVFEVVDNAIDEALAGHCKEII
VTIHADNSVSVQDDGRGIPTGIHPEEGVSAAEVIMTVLHAGGKFDDNSYKVSGGLHGVGV
SVVNALSQKLELVIQREGKIHRQIYEHGVPQAPLAVTGETEKTGTMVRFWPSLETFTNVT
EFEYEILAKRLRELSFLNSGVSIRLRDKRDGKEDHFHYEGGIKAFVEYLNKNKTPIHPNI
FYFSTEKDGIGVEVALQWNDGFQENIYCFTNNIPQRDGGTHLAGFRAAMTRTLNAYMDKE
GYSKKAKVSATGDDAREGLIAVVSVKVPDPKFSSQTKDKLVSSEVKSAVEQQMNELLAEY
LLENPTDAKIVVGKIIDAARAREAARRAREMTRRKGALDLAGLPGKLADCQERDPALSEL
YLVEGDSAGGSAKQGRNRKNQAILPLKGKILNVEKARFDKMLSSQEVATLITALGCGIGR
DEYNPDKLRYHSIIIMTDADVDGSHIRTLLLTFFYRQMPEIVERGHVYIAQPPLYKVKKG
KQEQYIKDDEAMDQYQISIALDGATLHTNASAPALAGEALEKLVSEYNATQKMINRMERR
YPKAMLKELIYQPTLTEADLSDEQTVTRWVNALVSELNDKEQHGSQWKFDVHTNAEQNLF
EPIVRVRTHGVDTDYPLDHEFITGGEYRRICTLGEKLRGLLEEDAFIERGERRQPVASFE
QALDWLVKESRRGLSIQRYKGLGEMNPEQLWETTMDPESRRMLRVTVKDAIAADQLFTTL
MGDAVEPRRAFIEENALKAANIDI

> <PDB ID(s) of Target Chain>
1KZN,3G7E,3NUH,4DUH,4HYP,4KFG,4PRV,4PRX,4PU9,4WUB,4WUC,4WUD,4XTJ,4ZVI,5L3J,5MMN,5MMO,5MMP,5Z4H,5Z4O,5Z9B,5Z9E,5Z9F,5Z9L,5Z9M,5Z9N,5Z9Q,6ENG,6F86,6F8J,6F94,6F96

> <UniProt (SwissProt) Recommended Name of Target Chain>
DNA gyrase subunit B

> <UniProt (SwissProt) Entry Name of Target Chain>
GYRB_ECOLI

> <UniProt (SwissProt) Primary ID of Target Chain>
P0AES6

> <UniProt (SwissProt) Secondary ID(s) of Target Chain>
O08438,P06982,Q2M811

> <UniProt (SwissProt) Alternative ID(s) of Target Chain>


> <UniProt (TrEMBL) Submitted Name of Target Chain>


> <UniProt (TrEMBL) Entry Name of Target Chain>


> <UniProt (TrEMBL) Primary ID of Target Chain>


> <UniProt (TrEMBL) Secondary ID(s) of Target Chain>


> <UniProt (TrEMBL) Alternative ID(s) of Target Chain>


$$$$

  Mrv0541 11231413392D          

 50 54  0  0  0  0            999 V2000
   13.6160  -18.9013    0.0000 C   0  0  0  0  0  0  0  0  0  0  0  0
   12.8901  -18.4997    0.0000 C   0  0  1  0  0  0  0  0  0  0  0  0
   12.1834  -18.9252    0.0000 C   0  0  2  0  0  0  0  0  0  0  0  0
   12.1962  -19.7541    0.0000 C   0  0  2  0  0  0  0  0  0  0  0  0
   12.9221  -20.1556    0.0000 C   0  0  1  0  0  0  0  0  0  0  0  0
   13.6351  -19.7284    0.0000 O   0  0  0  0  0  0  0  0  0  0  0  0
   12.9364  -20.9805    0.0000 O   0  0  0  0  0  0  0  0  0  0  0  0
   13.6561  -21.3918    0.0000 C   0  0  0  0  0  0  0  0  0  0  0  0
   13.6555  -22.2163    0.0000 C   0  0  0  0  0  0  0  0  0  0  0  0
   14.3710  -20.9775    0.0000 C   0  0  0  0  0  0  0  0  0  0  0  0
   15.0856  -21.3953    0.0000 C   0  0  0  0  0  0  0  0  0  0  0  0
   15.0837  -22.2200    0.0000 C   0  0  0  0  0  0  0  0  0  0  0  0
   14.3684  -22.6315    0.0000 C   0  0  0  0  0  0  0  0  0  0  0  0
   14.3672  -23.4522    0.0000 O   0  0  0  0  0  0  0  0  0  0  0  0
   15.0795  -23.8675    0.0000 C   0  0  0  0  0  0  0  0  0  0  0  0
   15.7949  -23.4560    0.0000 C   0  0  0  0  0  0  0  0  0  0  0  0
   15.7977  -22.6291    0.0000 C   0  0  0  0  0  0  0  0  0  0  0  0
   16.5123  -22.2167    0.0000 O   0  0  0  0  0  0  0  0  0  0  0  0
   15.0772  -24.6925    0.0000 O   0  0  0  0  0  0  0  0  0  0  0  0
   16.5083  -23.8703    0.0000 N   0  0  0  0  0  0  0  0  0  0  0  0
   16.5062  -24.6953    0.0000 C   0  0  0  0  0  0  0  0  0  0  0  0
   15.7907  -25.1059    0.0000 O   0  0  0  0  0  0  0  0  0  0  0  0
   17.2197  -25.1095    0.0000 C   0  0  0  0  0  0  0  0  0  0  0  0
   17.2148  -25.9337    0.0000 C   0  0  0  0  0  0  0  0  0  0  0  0
   17.9273  -26.3479    0.0000 C   0  0  0  0  0  0  0  0  0  0  0  0
   18.6438  -25.9372    0.0000 C   0  0  0  0  0  0  0  0  0  0  0  0
   18.6432  -25.1079    0.0000 C   0  0  0  0  0  0  0  0  0  0  0  0
   17.9301  -24.6974    0.0000 C   0  0  0  0  0  0  0  0  0  0  0  0
   19.3578  -26.3505    0.0000 O   0  0  0  0  0  0  0  0  0  0  0  0
   14.4435  -18.8823    0.0000 C   0  0  0  0  0  0  0  0  0  0  0  0
   13.6052  -18.0781    0.0000 C   0  0  0  0  0  0  0  0  0  0  0  0
   12.8750  -17.6749    0.0000 O   0  0  0  0  0  0  0  0  0  0  0  0
   13.5818  -17.2493    0.0000 C   0  0  0  0  0  0  0  0  0  0  0  0
   11.4620  -18.5248    0.0000 O   0  0  0  0  0  0  0  0  0  0  0  0
   11.4480  -17.7000    0.0000 C   0  0  0  0  0  0  0  0  0  0  0  0
   10.7270  -17.2993    0.0000 C   0  0  0  0  0  0  0  0  0  0  0  0
   12.1553  -17.2755    0.0000 O   0  0  0  0  0  0  0  0  0  0  0  0
   11.4888  -20.1787    0.0000 O   0  0  0  0  0  0  0  0  0  0  0  0
   10.4911  -16.5058    0.0000 C   0  0  0  0  0  0  0  0  0  0  0  0
    9.6665  -16.4827    0.0000 C   0  0  0  0  0  0  0  0  0  0  0  0
    9.3897  -17.2600    0.0000 C   0  0  0  0  0  0  0  0  0  0  0  0
   10.0433  -17.7632    0.0000 N   0  0  0  0  0  0  0  0  0  0  0  0
    8.6716  -17.6641    0.0000 C   0  0  0  0  0  0  0  0  0  0  0  0
   12.9400  -22.6272    0.0000 Cl  0  0  0  0  0  0  0  0  0  0  0  0
   19.3573  -24.6946    0.0000 N   0  0  0  0  0  0  0  0  0  0  0  0
   20.0722  -25.1065    0.0000 C   0  0  0  0  0  0  0  0  0  0  0  0
   20.7862  -24.6932    0.0000 C   0  0  0  0  0  0  0  0  0  0  0  0
   21.5011  -25.1049    0.0000 C   0  0  0  0  0  0  0  0  0  0  0  0
   20.7853  -23.8682    0.0000 C   0  0  0  0  0  0  0  0  0  0  0  0
   20.0730  -25.9315    0.0000 O   0  0  0  0  0  0  0  0  0  0  0  0
 23 24  2  0  0  0  0
  3  4  1  0  0  0  0
 24 25  1  0  0  0  0
 12 13  1  0  0  0  0
 25 26  2  0  0  0  0
  4  5  1  0  0  0  0
 26 27  1  0  0  0  0
  5  6  1  0  0  0  0
 27 28  2  0  0  0  0
 28 23  1  0  0  0  0
 26 29  1  0  0  0  0
  5  7  1  1  0  0  0
  1 30  1  0  0  0  0
  2  1  1  0  0  0  0
  1 31  1  0  0  0  0
  7  8  1  0  0  0  0
  2 32  1  1  0  0  0
 12 17  1  0  0  0  0
 32 33  1  0  0  0  0
 13 14  1  0  0  0  0
  3 34  1  6  0  0  0
 14 15  1  0  0  0  0
 34 35  1  0  0  0  0
 15 16  1  0  0  0  0
 35 36  1  0  0  0  0
 16 17  2  0  0  0  0
 35 37  2  0  0  0  0
  8  9  1  0  0  0  0
  4 38  1  6  0  0  0
 36 39  2  0  0  0  0
 17 18  1  0  0  0  0
  1  6  1  0  0  0  0
 15 19  2  0  0  0  0
  3  2  1  0  0  0  0
 39 40  1  0  0  0  0
 40 41  2  0  0  0  0
 41 42  1  0  0  0  0
 42 36  1  0  0  0  0
 16 20  1  0  0  0  0
 41 43  1  0  0  0  0
  8 10  2  0  0  0  0
  9 44  1  0  0  0  0
 20 21  1  0  0  0  0
 27 45  1  0  0  0  0
  9 13  2  0  0  0  0
 45 46  1  0  0  0  0
 21 22  2  0  0  0  0
 46 47  1  0  0  0  0
 11 10  1  0  0  0  0
 47 48  1  0  0  0  0
 21 23  1  0  0  0  0
 47 49  1  0  0  0  0
 11 12  2  0  0  0  0
 46 50  2  0  0  0  0
M  END
> <From> 
www.bindingDB.org

> <BindingDB Reactant_set_id>
50607687

> <Ligand InChI>
InChI=1S/C34H36ClN3O12/c1-14(2)29(42)37-19-13-16(8-11-20(19)39)30(43)38-23-24(40)17-9-12-21(22(35)26(17)48-32(23)45)47-33-25(41)27(28(46-6)34(4,5)50-33)49-31(44)18-10-7-15(3)36-18/h7-14,25,27-28,33,36,39-41H,1-6H3,(H,37,42)(H,38,43)/t25-,27+,28-,33-/m1/s1

> <Ligand InChI Key>
FNPPUNGVMKGUFY-OJGAGICASA-N

> <BindingDB MonomerID>
50330316

> <BindingDB Ligand Name>
(3R,4S,5R,6S)-6-(8-chloro-4-hydroxy-3-(4-hydroxy-3-isobutyramidobenzamido)-2-oxo-2H-chromen-7-yloxy)-5-hydroxy-3-methoxy-2,2-dimethyltetrahydro-2H-pyran-4-yl 5-methyl-1H-pyrrole-2-carboxylate::CHEMBL1275842

> <Target Name Assigned by Curator or DataSource>
DNA Gyrase Subunit B

> <Target Source Organism According to Curator or DataSource>
Escherichia coli

> <Ki (nM)>


> <IC50 (nM)>
 73

> <Kd (nM)>


> <EC50 (nM)>


> <kon (M-1-s-1)>


> <koff (s-1)>


> <pH>


> <Temp C>


> <Curation/DataSource>
ChEMBL

> <Article DOI>
10.1128/AAC.01235-07

> <PMID>
18347114

> <PubChem AID>


> <Patent Number>


> <Authors>
Anderle, C; Stieger, M; Burrell, M; Reinelt, S; Maxwell, A; Page, M; Heide, L

> <Institution>
Universit&#228;t T&#252;bingen

> <Link to Ligand in BindingDB>
http://www.bindingdb.org/bind/chemsearch/marvin/MolStructure.jsp?monomerid=50330316

> <Link to Ligand-Target Pair in BindingDB>
http://www.bindingdb.org/jsp/dbsearch/PrimarySearch_ki.jsp?energyterm=kJ/mole&tag=pol&polymerid=2630&target=DNA+Gyrase+Subunit+B&column=ki&startPg=0&Increment=50&submit=Search

> <Link to Ligand-Target Pair in BindingDB>
http://www.bindingdb.org/jsp/dbsearch/PrimarySearch_ki.jsp?energyterm=kJ/mole&tag=r21&monomerid=50330316&enzyme=DNA+Gyrase+Subunit+B&column=ki&startPg=0&Increment=50&submit=Search

> <Ligand HET ID in PDB>


> <PDB ID(s) for Ligand-Target Complex>


> <PubChem CID>
54730379

> <PubChem SID>
123109431

> <ChEBI ID of Ligand>


> <ChEMBL ID of Ligand>
CHEMBL1275842

> <DrugBank ID of Ligand>


> <IUPHAR_GRAC ID of Ligand>


> <KEGG ID of Ligand>


> <ZINC ID of Ligand>
ZINC72136376

> <Number of Protein Chains in Target (>1 implies a multichain complex)>
1

> <BindingDB Target Chain Sequence>
MSNSYDSSSIKVLKGLDAVRKRPGMYIGDTDDGTGLHHMVFEVVDNAIDEALAGHCKEII
VTIHADNSVSVQDDGRGIPTGIHPEEGVSAAEVIMTVLHAGGKFDDNSYKVSGGLHGVGV
SVVNALSQKLELVIQREGKIHRQIYEHGVPQAPLAVTGETEKTGTMVRFWPSLETFTNVT
EFEYEILAKRLRELSFLNSGVSIRLRDKRDGKEDHFHYEGGIKAFVEYLNKNKTPIHPNI
FYFSTEKDGIGVEVALQWNDGFQENIYCFTNNIPQRDGGTHLAGFRAAMTRTLNAYMDKE
GYSKKAKVSATGDDAREGLIAVVSVKVPDPKFSSQTKDKLVSSEVKSAVEQQMNELLAEY
LLENPTDAKIVVGKIIDAARAREAARRAREMTRRKGALDLAGLPGKLADCQERDPALSEL
YLVEGDSAGGSAKQGRNRKNQAILPLKGKILNVEKARFDKMLSSQEVATLITALGCGIGR
DEYNPDKLRYHSIIIMTDADVDGSHIRTLLLTFFYRQMPEIVERGHVYIAQPPLYKVKKG
KQEQYIKDDEAMDQYQISIALDGATLHTNASAPALAGEALEKLVSEYNATQKMINRMERR
YPKAMLKELIYQPTLTEADLSDEQTVTRWVNALVSELNDKEQHGSQWKFDVHTNAEQNLF
EPIVRVRTHGVDTDYPLDHEFITGGEYRRICTLGEKLRGLLEEDAFIERGERRQPVASFE
QALDWLVKESRRGLSIQRYKGLGEMNPEQLWETTMDPESRRMLRVTVKDAIAADQLFTTL
MGDAVEPRRAFIEENALKAANIDI

> <PDB ID(s) of Target Chain>
1KZN,3G7E,3NUH,4DUH,4HYP,4KFG,4PRV,4PRX,4PU9,4WUB,4WUC,4WUD,4XTJ,4ZVI,5L3J,5MMN,5MMO,5MMP,5Z4H,5Z4O,5Z9B,5Z9E,5Z9F,5Z9L,5Z9M,5Z9N,5Z9Q,6ENG,6F86,6F8J,6F94,6F96

> <UniProt (SwissProt) Recommended Name of Target Chain>
DNA gyrase subunit B

> <UniProt (SwissProt) Entry Name of Target Chain>
GYRB_ECOLI

> <UniProt (SwissProt) Primary ID of Target Chain>
P0AES6

> <UniProt (SwissProt) Secondary ID(s) of Target Chain>
O08438,P06982,Q2M811

> <UniProt (SwissProt) Alternative ID(s) of Target Chain>


> <UniProt (TrEMBL) Submitted Name of Target Chain>


> <UniProt (TrEMBL) Entry Name of Target Chain>


> <UniProt (TrEMBL) Primary ID of Target Chain>


> <UniProt (TrEMBL) Secondary ID(s) of Target Chain>


> <UniProt (TrEMBL) Alternative ID(s) of Target Chain>


$$$$

  Mrv0541 04241520572D          

 31 33  0  0  0  0            999 V2000
    6.8402  -27.1372    0.0000 C   0  0  0  0  0  0  0  0  0  0  0  0
    6.8390  -27.9645    0.0000 C   0  0  0  0  0  0  0  0  0  0  0  0
    7.5538  -28.3774    0.0000 C   0  0  0  0  0  0  0  0  0  0  0  0
    8.2703  -27.9641    0.0000 C   0  0  0  0  0  0  0  0  0  0  0  0
    8.2674  -27.1335    0.0000 C   0  0  0  0  0  0  0  0  0  0  0  0
    7.5520  -26.7244    0.0000 N   0  0  0  0  0  0  0  0  0  0  0  0
    6.1256  -26.7249    0.0000 N   0  0  0  0  0  0  0  0  0  0  0  0
    5.4113  -27.1375    0.0000 C   0  0  0  0  0  0  0  0  0  0  0  0
    4.6967  -26.7252    0.0000 N   0  0  0  0  0  0  0  0  0  0  0  0
    5.4115  -27.9625    0.0000 O   0  0  0  0  0  0  0  0  0  0  0  0
    3.9824  -27.1379    0.0000 C   0  0  0  0  0  0  0  0  0  0  0  0
    3.2678  -26.7256    0.0000 C   0  0  0  0  0  0  0  0  0  0  0  0
    8.9818  -28.3747    0.0000 C   0  0  0  0  0  0  0  0  0  0  0  0
    8.9817  -29.2008    0.0000 C   0  0  0  0  0  0  0  0  0  0  0  0
    9.6961  -29.6121    0.0000 N   0  0  0  0  0  0  0  0  0  0  0  0
   10.4108  -29.1984    0.0000 C   0  0  0  0  0  0  0  0  0  0  0  0
   10.4069  -28.3691    0.0000 C   0  0  0  0  0  0  0  0  0  0  0  0
    9.6920  -27.9616    0.0000 C   0  0  0  0  0  0  0  0  0  0  0  0
    7.5587  -29.2024    0.0000 C   0  0  0  0  0  0  0  0  0  0  0  0
    6.8912  -29.6872    0.0000 S   0  0  0  0  0  0  0  0  0  0  0  0
    7.1459  -30.4718    0.0000 C   0  0  0  0  0  0  0  0  0  0  0  0
    7.9710  -30.4720    0.0000 C   0  0  0  0  0  0  0  0  0  0  0  0
    8.2259  -29.6875    0.0000 N   0  0  0  0  0  0  0  0  0  0  0  0
    8.4557  -31.1395    0.0000 C   0  0  0  0  0  0  0  0  0  0  0  0
    8.1201  -31.8932    0.0000 F   0  0  0  0  0  0  0  0  0  0  0  0
    9.2762  -31.0534    0.0000 F   0  0  0  0  0  0  0  0  0  0  0  0
    9.0374  -31.7205    0.0000 F   0  0  0  0  0  0  0  0  0  0  0  0
   11.1192  -27.9530    0.0000 C   0  0  0  0  0  0  0  0  0  0  0  0
   11.8358  -28.3619    0.0000 N   0  0  0  0  0  0  0  0  0  0  0  0
   11.1150  -27.1280    0.0000 N   0  0  0  0  0  0  0  0  0  0  0  0
   11.8273  -26.7120    0.0000 O   0  0  0  0  0  0  0  0  0  0  0  0
  1  2  4  0  0  0  0
  2  3  4  0  0  0  0
  3  4  4  0  0  0  0
  4  5  4  0  0  0  0
  5  6  4  0  0  0  0
  6  1  4  0  0  0  0
  1  7  1  0  0  0  0
  7  8  1  0  0  0  0
  8  9  1  0  0  0  0
  8 10  2  0  0  0  0
  9 11  1  0  0  0  0
 11 12  1  0  0  0  0
 13 14  4  0  0  0  0
 14 15  4  0  0  0  0
 15 16  4  0  0  0  0
 16 17  4  0  0  0  0
 17 18  4  0  0  0  0
 18 13  4  0  0  0  0
  4 13  1  0  0  0  0
 19 20  4  0  0  0  0
 20 21  4  0  0  0  0
 21 22  4  0  0  0  0
 22 23  4  0  0  0  0
 23 19  4  0  0  0  0
  3 19  1  0  0  0  0
 22 24  1  0  0  0  0
 24 25  1  0  0  0  0
 24 26  1  0  0  0  0
 24 27  1  0  0  0  0
 17 28  1  0  0  0  0
 28 29  1  0  0  0  0
 28 30  2  0  0  0  0
 30 31  1  0  0  0  0
M  END
> <From> 
www.bindingDB.org

> <BindingDB Reactant_set_id>
50083279

> <Ligand InChI>
InChI=1S/C18H16F3N7O2S/c1-2-24-17(29)27-14-4-11(16-26-13(8-31-16)18(19,20)21)12(7-25-14)9-3-10(6-23-5-9)15(22)28-30/h3-8,30H,2H2,1H3,(H2,22,28)(H2,24,25,27,29)

> <Ligand InChI Key>
ROHZYGLGEHMUSP-UHFFFAOYSA-N

> <BindingDB MonomerID>
50006604

> <BindingDB Ligand Name>
CHEMBL3235095

> <Target Name Assigned by Curator or DataSource>
DNA Gyrase Subunit B

> <Target Source Organism According to Curator or DataSource>
Staphylococcus aureus

> <Ki (nM)>


> <IC50 (nM)>
 73

> <Kd (nM)>


> <EC50 (nM)>


> <kon (M-1-s-1)>


> <koff (s-1)>


> <pH>


> <Temp C>


> <Curation/DataSource>
ChEMBL

> <Article DOI>
10.1021/jm401208b

> <PMID>
24098982

> <PubChem AID>


> <Patent Number>


> <Authors>
Basarab, GS; Basarab, GS; Boriack-Sjodin, PA; Boriack-Sjodin, PA; Illingworth, R; Illingworth, R; Manchester, JI; Manchester, JI; Dangel, B; Dangel, B; Sriram, S; Sriram, S

> <Institution>
AstraZeneca R&amp;D Boston

> <Link to Ligand in BindingDB>
http://www.bindingdb.org/bind/chemsearch/marvin/MolStructure.jsp?monomerid=50006604

> <Link to Ligand-Target Pair in BindingDB>
http://www.bindingdb.org/jsp/dbsearch/PrimarySearch_ki.jsp?energyterm=kJ/mole&tag=pol&polymerid=2626&target=DNA+Gyrase+Subunit+B&column=ki&startPg=0&Increment=50&submit=Search

> <Link to Ligand-Target Pair in BindingDB>
http://www.bindingdb.org/jsp/dbsearch/PrimarySearch_ki.jsp?energyterm=kJ/mole&tag=r21&monomerid=50006604&enzyme=DNA+Gyrase+Subunit+B&column=ki&startPg=0&Increment=50&submit=Search

> <Ligand HET ID in PDB>


> <PDB ID(s) for Ligand-Target Complex>


> <PubChem CID>
87252316

> <PubChem SID>
242057016

> <ChEBI ID of Ligand>


> <ChEMBL ID of Ligand>
CHEMBL3235095

> <DrugBank ID of Ligand>


> <IUPHAR_GRAC ID of Ligand>


> <KEGG ID of Ligand>


> <ZINC ID of Ligand>


> <Number of Protein Chains in Target (>1 implies a multichain complex)>
1

> <BindingDB Target Chain Sequence>
MVTALSDVNNTDNYGAGQIQVLEGLEAVRKRPGMYIGSTSERGLHHLVWEIVDNSIDEALAGYANQIEVVIEKDNWIKVTDNGRGIPVDIQEKMGRPAVEVILTVLHAGGKFGGGGYKVSGGLHGVGSSVVNALSQDLEVYVHRNETIYHQAYKKGVPQFDLKEVGTTDKTGTVIRFKADGEIFTETTVYNYETLQQRIRELAFLNKGIQITLRDERDEENVREDSYHYEGGIKSYVELLNENKEPIHDEPIYIHQSKDDIEVEIAIQYNSGYATNLLTYANNIHTYEGGTHEDGFKRALTRVLNSYGLSSKIMKEEKDRLSGEDTREGMTAIISIKHGDPQFEGQTKTKLGNSEVRQVVDKLFSEHFERFLYENPQVARTVVEKGIMAARARVAAKKAREVTRRKSALDVASLPGKLADCSSKSPEECEIFLVEGDSAGGSTKSGRDSRTQAILPLRGKILNVEKARLDRILNNNEIRQMITAFGTGIGGDFDLAKARYHKIVIMTDADVDGAHIRTLLLTFFYRFMRPLIEAGYVYIAQPPLYKLTQGKQKYYVYNDRELDKLKSELNPTPKWSIARYKGLGEMNADQLWETTMNPEHRALLQVKLEDAIEADQTFEMLMGDVVENRRQFIEDNAVYANLDF

> <PDB ID(s) of Target Chain>


> <UniProt (SwissProt) Recommended Name of Target Chain>
DNA gyrase subunit B

> <UniProt (SwissProt) Entry Name of Target Chain>
GYRB_STAAU

> <UniProt (SwissProt) Primary ID of Target Chain>
P0A0K8

> <UniProt (SwissProt) Secondary ID(s) of Target Chain>
P20832

> <UniProt (SwissProt) Alternative ID(s) of Target Chain>


> <UniProt (TrEMBL) Submitted Name of Target Chain>


> <UniProt (TrEMBL) Entry Name of Target Chain>


> <UniProt (TrEMBL) Primary ID of Target Chain>


> <UniProt (TrEMBL) Secondary ID(s) of Target Chain>


> <UniProt (TrEMBL) Alternative ID(s) of Target Chain>


$$$$

  Mrv0541 11231413392D          

 49 53  0  0  0  0            999 V2000
   -4.4696   -1.4645    0.0000 C   0  0  0  0  0  0  0  0  0  0  0  0
   -3.5709   -1.2715    0.0000 C   0  0  0  0  0  0  0  0  0  0  0  0
   -2.5103   -1.2715    0.0000 C   0  0  0  0  0  0  0  0  0  0  0  0
   -3.7551   -0.2270    0.0000 C   0  0  2  0  0  0  0  0  0  0  0  0
   -3.7551    0.5980    0.0000 C   0  0  2  0  0  0  0  0  0  0  0  0
   -3.0406    1.0105    0.0000 C   0  0  2  0  0  0  0  0  0  0  0  0
   -2.3262    0.5980    0.0000 C   0  0  1  0  0  0  0  0  0  0  0  0
   -3.0406   -0.6395    0.0000 C   0  0  0  0  0  0  0  0  0  0  0  0
   -0.1827    1.8355    0.0000 Cl  0  0  0  0  0  0  0  0  0  0  0  0
   -0.8972    0.5980    0.0000 C   0  0  0  0  0  0  0  0  0  0  0  0
   -0.1827    1.0105    0.0000 C   0  0  0  0  0  0  0  0  0  0  0  0
    0.5317    0.5980    0.0000 C   0  0  0  0  0  0  0  0  0  0  0  0
    1.9607    0.5980    0.0000 C   0  0  0  0  0  0  0  0  0  0  0  0
    1.9607   -0.2270    0.0000 C   0  0  0  0  0  0  0  0  0  0  0  0
    1.2462   -0.6395    0.0000 C   0  0  0  0  0  0  0  0  0  0  0  0
    0.5317   -0.2270    0.0000 C   0  0  0  0  0  0  0  0  0  0  0  0
   -0.1827   -0.6395    0.0000 C   0  0  0  0  0  0  0  0  0  0  0  0
   -0.8972   -0.2270    0.0000 C   0  0  0  0  0  0  0  0  0  0  0  0
    3.3896   -0.2270    0.0000 C   0  0  0  0  0  0  0  0  0  0  0  0
    4.1041   -0.6395    0.0000 C   0  0  0  0  0  0  0  0  0  0  0  0
    4.8185   -0.2270    0.0000 C   0  0  0  0  0  0  0  0  0  0  0  0
    5.5330   -0.6395    0.0000 C   0  0  0  0  0  0  0  0  0  0  0  0
    5.5330   -1.4645    0.0000 C   0  0  0  0  0  0  0  0  0  0  0  0
    4.8185   -1.8770    0.0000 C   0  0  0  0  0  0  0  0  0  0  0  0
    4.1041   -1.4645    0.0000 C   0  0  0  0  0  0  0  0  0  0  0  0
    6.2475   -0.2270    0.0000 C   0  0  0  0  0  0  0  0  0  0  0  0
    6.9620   -0.6395    0.0000 C   0  0  0  0  0  0  0  0  0  0  0  0
    7.6764   -0.2270    0.0000 C   0  0  0  0  0  0  0  0  0  0  0  0
    8.3909   -0.6395    0.0000 C   0  0  0  0  0  0  0  0  0  0  0  0
    7.6764    0.5980    0.0000 C   0  0  0  0  0  0  0  0  0  0  0  0
    2.6751   -0.6395    0.0000 N   0  0  0  0  0  0  0  0  0  0  0  0
   -4.4696   -0.6395    0.0000 O   0  0  0  0  0  0  0  0  0  0  0  0
   -4.4696    1.0105    0.0000 O   0  0  0  0  0  0  0  0  0  0  0  0
   -2.3262   -0.2270    0.0000 O   0  0  0  0  0  0  0  0  0  0  0  0
   -1.6117    1.0105    0.0000 O   0  0  0  0  0  0  0  0  0  0  0  0
    1.2462   -1.4645    0.0000 O   0  0  0  0  0  0  0  0  0  0  0  0
    1.2462    1.0105    0.0000 O   0  0  0  0  0  0  0  0  0  0  0  0
    2.6751    1.0105    0.0000 O   0  0  0  0  0  0  0  0  0  0  0  0
    3.3896    0.5980    0.0000 O   0  0  0  0  0  0  0  0  0  0  0  0
    6.2475   -1.8770    0.0000 O   0  0  0  0  0  0  0  0  0  0  0  0
   -6.7917    2.0025    0.0000 C   0  0  0  0  0  0  0  0  0  0  0  0
   -5.9848    1.8310    0.0000 C   0  0  0  0  0  0  0  0  0  0  0  0
   -5.8985    1.0105    0.0000 C   0  0  0  0  0  0  0  0  0  0  0  0
   -6.6522    0.6749    0.0000 N   0  0  0  0  0  0  0  0  0  0  0  0
   -7.2042    1.2880    0.0000 C   0  0  0  0  0  0  0  0  0  0  0  0
   -8.0247    1.2018    0.0000 C   0  0  0  0  0  0  0  0  0  0  0  0
   -5.1840    0.5980    0.0000 C   0  0  0  0  0  0  0  0  0  0  0  0
   -5.1840   -0.2270    0.0000 O   0  0  0  0  0  0  0  0  0  0  0  0
   -3.0406    1.8355    0.0000 O   0  0  0  0  0  0  0  0  0  0  0  0
  1 32  1  0  0  0  0
  8  2  1  0  0  0  0
  3  8  1  0  0  0  0
  5  4  1  0  0  0  0
  4  8  1  0  0  0  0
  4 32  1  6  0  0  0
  5  6  1  0  0  0  0
  5 33  1  1  0  0  0
  6  7  1  0  0  0  0
  6 49  1  1  0  0  0
  7 34  1  0  0  0  0
  7 35  1  6  0  0  0
  8 34  1  0  0  0  0
 11  9  1  0  0  0  0
 10 11  1  0  0  0  0
 10 18  2  0  0  0  0
 10 35  1  0  0  0  0
 11 12  2  0  0  0  0
 16 12  1  0  0  0  0
 12 37  1  0  0  0  0
 13 14  1  0  0  0  0
 13 37  1  0  0  0  0
 13 38  2  0  0  0  0
 14 15  2  0  0  0  0
 14 31  1  0  0  0  0
 16 15  1  0  0  0  0
 15 36  1  0  0  0  0
 16 17  2  0  0  0  0
 17 18  1  0  0  0  0
 19 20  1  0  0  0  0
 19 31  1  0  0  0  0
 19 39  2  0  0  0  0
 20 21  2  0  0  0  0
 20 25  1  0  0  0  0
 21 22  1  0  0  0  0
 22 23  2  0  0  0  0
 22 26  1  0  0  0  0
 23 24  1  0  0  0  0
 23 40  1  0  0  0  0
 24 25  2  0  0  0  0
 26 27  1  0  0  0  0
 27 28  2  0  0  0  0
 28 29  1  0  0  0  0
 28 30  1  0  0  0  0
 47 33  1  0  0  0  0
 41 42  1  0  0  0  0
 41 45  2  0  0  0  0
 42 43  2  0  0  0  0
 43 44  1  0  0  0  0
 47 43  1  0  0  0  0
 45 44  1  0  0  0  0
 45 46  1  0  0  0  0
 47 48  2  0  0  0  0
M  END
> <From> 
www.bindingDB.org

> <BindingDB Reactant_set_id>
50607688

> <Ligand InChI>
InChI=1S/C35H37ClN2O11/c1-16(2)7-9-18-15-19(10-13-22(18)39)31(42)38-25-26(40)20-11-14-23(24(36)28(20)47-33(25)44)46-34-27(41)29(30(45-6)35(4,5)49-34)48-32(43)21-12-8-17(3)37-21/h7-8,10-15,27,29-30,34,37,39-41H,9H2,1-6H3,(H,38,42)/t27-,29+,30-,34-/m1/s1

> <Ligand InChI Key>
FJAQNRBDVKIIKK-LFLQOBSNSA-N

> <BindingDB MonomerID>
50330317

> <BindingDB Ligand Name>
5-Methyl-1H-pyrrole-2-carboxylic acid (3R,4S,5R,6S)-6-{8-chloro-4-hydroxy-3-[4-hydroxy-3-(3-methyl-but-2-enyl)-benzoylamino]-2-oxo-2H-chromen-7-yloxy}-5-hydroxy-3-methoxy-2,2-dimethyl-tetrahydro-pyran-4-yl ester::5-Methyl-1H-pyrrole-2-carboxylic acid (3R,4S,5R,6S)-6-{8-chloro-4-hydroxy-3-[4-hydroxy-3-(4-methyl-pent-3-enyl)-benzoylamino]-2-oxo-2H-chromen-7-yloxy}-5-hydroxy-3-methoxy-2,2-dimethyl-tetrahydro-pyran-4-yl ester::CHEMBL303984::Clorobiocin

> <Target Name Assigned by Curator or DataSource>
DNA Gyrase Subunit B

> <Target Source Organism According to Curator or DataSource>
Escherichia coli

> <Ki (nM)>


> <IC50 (nM)>
 73

> <Kd (nM)>


> <EC50 (nM)>


> <kon (M-1-s-1)>


> <koff (s-1)>


> <pH>


> <Temp C>


> <Curation/DataSource>
ChEMBL

> <Article DOI>
10.1128/AAC.01235-07

> <PMID>
18347114

> <PubChem AID>


> <Patent Number>


> <Authors>
Anderle, C; Stieger, M; Burrell, M; Reinelt, S; Maxwell, A; Page, M; Heide, L

> <Institution>
Universit&#228;t T&#252;bingen

> <Link to Ligand in BindingDB>
http://www.bindingdb.org/bind/chemsearch/marvin/MolStructure.jsp?monomerid=50330317

> <Link to Ligand-Target Pair in BindingDB>
http://www.bindingdb.org/jsp/dbsearch/PrimarySearch_ki.jsp?energyterm=kJ/mole&tag=pol&polymerid=2630&target=DNA+Gyrase+Subunit+B&column=ki&startPg=0&Increment=50&submit=Search

> <Link to Ligand-Target Pair in BindingDB>
http://www.bindingdb.org/jsp/dbsearch/PrimarySearch_ki.jsp?energyterm=kJ/mole&tag=r21&monomerid=50330317&enzyme=DNA+Gyrase+Subunit+B&column=ki&startPg=0&Increment=50&submit=Search

> <Ligand HET ID in PDB>
CBN

> <PDB ID(s) for Ligand-Target Complex>
1KZN

> <PubChem CID>
54706138

> <PubChem SID>
123109432

> <ChEBI ID of Ligand>


> <ChEMBL ID of Ligand>
CHEMBL303984

> <DrugBank ID of Ligand>


> <IUPHAR_GRAC ID of Ligand>


> <KEGG ID of Ligand>
C12032

> <ZINC ID of Ligand>
ZINC04102306

> <Number of Protein Chains in Target (>1 implies a multichain complex)>
1

> <BindingDB Target Chain Sequence>
MSNSYDSSSIKVLKGLDAVRKRPGMYIGDTDDGTGLHHMVFEVVDNAIDEALAGHCKEII
VTIHADNSVSVQDDGRGIPTGIHPEEGVSAAEVIMTVLHAGGKFDDNSYKVSGGLHGVGV
SVVNALSQKLELVIQREGKIHRQIYEHGVPQAPLAVTGETEKTGTMVRFWPSLETFTNVT
EFEYEILAKRLRELSFLNSGVSIRLRDKRDGKEDHFHYEGGIKAFVEYLNKNKTPIHPNI
FYFSTEKDGIGVEVALQWNDGFQENIYCFTNNIPQRDGGTHLAGFRAAMTRTLNAYMDKE
GYSKKAKVSATGDDAREGLIAVVSVKVPDPKFSSQTKDKLVSSEVKSAVEQQMNELLAEY
LLENPTDAKIVVGKIIDAARAREAARRAREMTRRKGALDLAGLPGKLADCQERDPALSEL
YLVEGDSAGGSAKQGRNRKNQAILPLKGKILNVEKARFDKMLSSQEVATLITALGCGIGR
DEYNPDKLRYHSIIIMTDADVDGSHIRTLLLTFFYRQMPEIVERGHVYIAQPPLYKVKKG
KQEQYIKDDEAMDQYQISIALDGATLHTNASAPALAGEALEKLVSEYNATQKMINRMERR
YPKAMLKELIYQPTLTEADLSDEQTVTRWVNALVSELNDKEQHGSQWKFDVHTNAEQNLF
EPIVRVRTHGVDTDYPLDHEFITGGEYRRICTLGEKLRGLLEEDAFIERGERRQPVASFE
QALDWLVKESRRGLSIQRYKGLGEMNPEQLWETTMDPESRRMLRVTVKDAIAADQLFTTL
MGDAVEPRRAFIEENALKAANIDI

> <PDB ID(s) of Target Chain>
1KZN,3G7E,3NUH,4DUH,4HYP,4KFG,4PRV,4PRX,4PU9,4WUB,4WUC,4WUD,4XTJ,4ZVI,5L3J,5MMN,5MMO,5MMP,5Z4H,5Z4O,5Z9B,5Z9E,5Z9F,5Z9L,5Z9M,5Z9N,5Z9Q,6ENG,6F86,6F8J,6F94,6F96

> <UniProt (SwissProt) Recommended Name of Target Chain>
DNA gyrase subunit B

> <UniProt (SwissProt) Entry Name of Target Chain>
GYRB_ECOLI

> <UniProt (SwissProt) Primary ID of Target Chain>
P0AES6

> <UniProt (SwissProt) Secondary ID(s) of Target Chain>
O08438,P06982,Q2M811

> <UniProt (SwissProt) Alternative ID(s) of Target Chain>


> <UniProt (TrEMBL) Submitted Name of Target Chain>


> <UniProt (TrEMBL) Entry Name of Target Chain>


> <UniProt (TrEMBL) Primary ID of Target Chain>


> <UniProt (TrEMBL) Secondary ID(s) of Target Chain>


> <UniProt (TrEMBL) Alternative ID(s) of Target Chain>


$$$$

  Mrv0541 11231413392D          

 45 49  0  0  0  0            999 V2000
   -0.2210   -6.0954    0.0000 C   0  0  0  0  0  0  0  0  0  0  0  0
   -0.9470   -5.6939    0.0000 C   0  0  1  0  0  0  0  0  0  0  0  0
   -1.6537   -6.1194    0.0000 C   0  0  2  0  0  0  0  0  0  0  0  0
   -1.6409   -6.9482    0.0000 C   0  0  2  0  0  0  0  0  0  0  0  0
   -0.9149   -7.3498    0.0000 C   0  0  1  0  0  0  0  0  0  0  0  0
   -0.2018   -6.9225    0.0000 O   0  0  0  0  0  0  0  0  0  0  0  0
   -0.9006   -8.1747    0.0000 O   0  0  0  0  0  0  0  0  0  0  0  0
   -0.1808   -8.5860    0.0000 C   0  0  0  0  0  0  0  0  0  0  0  0
   -0.1816   -9.4104    0.0000 C   0  0  0  0  0  0  0  0  0  0  0  0
    0.5340   -8.1717    0.0000 C   0  0  0  0  0  0  0  0  0  0  0  0
    1.2485   -8.5894    0.0000 C   0  0  0  0  0  0  0  0  0  0  0  0
    1.2466   -9.4140    0.0000 C   0  0  0  0  0  0  0  0  0  0  0  0
    0.5314   -9.8257    0.0000 C   0  0  0  0  0  0  0  0  0  0  0  0
    0.5302  -10.6463    0.0000 O   0  0  0  0  0  0  0  0  0  0  0  0
    1.2425  -11.0616    0.0000 C   0  0  0  0  0  0  0  0  0  0  0  0
    1.9578  -10.6501    0.0000 C   0  0  0  0  0  0  0  0  0  0  0  0
    1.9607   -9.8232    0.0000 C   0  0  0  0  0  0  0  0  0  0  0  0
    2.6752   -9.4107    0.0000 O   0  0  0  0  0  0  0  0  0  0  0  0
    1.2401  -11.8866    0.0000 O   0  0  0  0  0  0  0  0  0  0  0  0
    2.6712  -11.0644    0.0000 N   0  0  0  0  0  0  0  0  0  0  0  0
    2.6691  -11.8893    0.0000 C   0  0  0  0  0  0  0  0  0  0  0  0
    1.9537  -12.3001    0.0000 O   0  0  0  0  0  0  0  0  0  0  0  0
    3.3826  -12.3036    0.0000 C   0  0  0  0  0  0  0  0  0  0  0  0
    3.3776  -13.1278    0.0000 C   0  0  0  0  0  0  0  0  0  0  0  0
    4.0902  -13.5420    0.0000 C   0  0  0  0  0  0  0  0  0  0  0  0
    4.8067  -13.1312    0.0000 C   0  0  0  0  0  0  0  0  0  0  0  0
    4.8062  -12.3020    0.0000 C   0  0  0  0  0  0  0  0  0  0  0  0
    4.0930  -11.8915    0.0000 C   0  0  0  0  0  0  0  0  0  0  0  0
    5.5207  -13.5446    0.0000 O   0  0  0  0  0  0  0  0  0  0  0  0
    0.6065   -6.0765    0.0000 C   0  0  0  0  0  0  0  0  0  0  0  0
   -0.2319   -5.2723    0.0000 C   0  0  0  0  0  0  0  0  0  0  0  0
   -0.9621   -4.8690    0.0000 O   0  0  0  0  0  0  0  0  0  0  0  0
   -0.2553   -4.4434    0.0000 C   0  0  0  0  0  0  0  0  0  0  0  0
   -2.3751   -5.7191    0.0000 O   0  0  0  0  0  0  0  0  0  0  0  0
   -2.3891   -4.8942    0.0000 C   0  0  0  0  0  0  0  0  0  0  0  0
   -3.1101   -4.4936    0.0000 C   0  0  0  0  0  0  0  0  0  0  0  0
   -1.6817   -4.4696    0.0000 O   0  0  0  0  0  0  0  0  0  0  0  0
   -2.3481   -7.3728    0.0000 O   0  0  0  0  0  0  0  0  0  0  0  0
   -3.3459   -3.6999    0.0000 C   0  0  0  0  0  0  0  0  0  0  0  0
   -4.1706   -3.6768    0.0000 C   0  0  0  0  0  0  0  0  0  0  0  0
   -4.4474   -4.4541    0.0000 C   0  0  0  0  0  0  0  0  0  0  0  0
   -3.7938   -4.9574    0.0000 N   0  0  0  0  0  0  0  0  0  0  0  0
   -5.1653   -4.8583    0.0000 C   0  0  0  0  0  0  0  0  0  0  0  0
    5.5202  -11.8888    0.0000 O   0  0  0  0  0  0  0  0  0  0  0  0
    6.2351  -12.3005    0.0000 C   0  0  0  0  0  0  0  0  0  0  0  0
  9 13  2  0  0  0  0
 21 22  2  0  0  0  0
 11 10  1  0  0  0  0
 21 23  1  0  0  0  0
 11 12  2  0  0  0  0
 23 24  2  0  0  0  0
  3  4  1  0  0  0  0
 24 25  1  0  0  0  0
 12 13  1  0  0  0  0
 25 26  2  0  0  0  0
  4  5  1  0  0  0  0
 26 27  1  0  0  0  0
  5  6  1  0  0  0  0
 27 28  2  0  0  0  0
 28 23  1  0  0  0  0
 26 29  1  0  0  0  0
  5  7  1  1  0  0  0
  1 30  1  0  0  0  0
  2  1  1  0  0  0  0
  1 31  1  0  0  0  0
  7  8  1  0  0  0  0
  2 32  1  1  0  0  0
 12 17  1  0  0  0  0
 32 33  1  0  0  0  0
 13 14  1  0  0  0  0
  3 34  1  6  0  0  0
 14 15  1  0  0  0  0
 34 35  1  0  0  0  0
 15 16  1  0  0  0  0
 35 36  1  0  0  0  0
 16 17  2  0  0  0  0
 35 37  2  0  0  0  0
  8  9  1  0  0  0  0
  4 38  1  6  0  0  0
 36 39  2  0  0  0  0
 17 18  1  0  0  0  0
  1  6  1  0  0  0  0
 15 19  2  0  0  0  0
  3  2  1  0  0  0  0
 39 40  1  0  0  0  0
 40 41  2  0  0  0  0
 41 42  1  0  0  0  0
 42 36  1  0  0  0  0
 16 20  1  0  0  0  0
 41 43  1  0  0  0  0
  8 10  2  0  0  0  0
 27 44  1  0  0  0  0
 20 21  1  0  0  0  0
 44 45  1  0  0  0  0
M  END
> <From> 
www.bindingDB.org

> <BindingDB Reactant_set_id>
50607698

> <Ligand InChI>
InChI=1S/C31H32N2O12/c1-14-6-10-18(32-14)28(38)44-25-24(36)30(45-31(2,3)26(25)41-5)42-16-8-9-17-20(13-16)43-29(39)22(23(17)35)33-27(37)15-7-11-19(34)21(12-15)40-4/h6-13,24-26,30,32,34-36H,1-5H3,(H,33,37)/t24-,25+,26-,30-/m1/s1

> <Ligand InChI Key>
JURYCYSCKRZQLD-YYZJCXNBSA-N

> <BindingDB MonomerID>
50330305

> <BindingDB Ligand Name>
(3R,4S,5R,6R)-5-hydroxy-6-(4-hydroxy-3-(4-hydroxy-3-methoxybenzamido)-2-oxo-2H-chromen-7-yloxy)-3-methoxy-2,2-dimethyltetrahydro-2H-pyran-4-yl 5-methyl-1H-pyrrole-2-carboxylate::CHEMBL1275888

> <Target Name Assigned by Curator or DataSource>
DNA Gyrase Subunit B

> <Target Source Organism According to Curator or DataSource>
Escherichia coli

> <Ki (nM)>


> <IC50 (nM)>
 75

> <Kd (nM)>


> <EC50 (nM)>


> <kon (M-1-s-1)>


> <koff (s-1)>


> <pH>


> <Temp C>


> <Curation/DataSource>
ChEMBL

> <Article DOI>
10.1128/AAC.01235-07

> <PMID>
18347114

> <PubChem AID>


> <Patent Number>


> <Authors>
Anderle, C; Stieger, M; Burrell, M; Reinelt, S; Maxwell, A; Page, M; Heide, L

> <Institution>
Universit&#228;t T&#252;bingen

> <Link to Ligand in BindingDB>
http://www.bindingdb.org/bind/chemsearch/marvin/MolStructure.jsp?monomerid=50330305

> <Link to Ligand-Target Pair in BindingDB>
http://www.bindingdb.org/jsp/dbsearch/PrimarySearch_ki.jsp?energyterm=kJ/mole&tag=pol&polymerid=2630&target=DNA+Gyrase+Subunit+B&column=ki&startPg=0&Increment=50&submit=Search

> <Link to Ligand-Target Pair in BindingDB>
http://www.bindingdb.org/jsp/dbsearch/PrimarySearch_ki.jsp?energyterm=kJ/mole&tag=r21&monomerid=50330305&enzyme=DNA+Gyrase+Subunit+B&column=ki&startPg=0&Increment=50&submit=Search

> <Ligand HET ID in PDB>


> <PDB ID(s) for Ligand-Target Complex>


> <PubChem CID>
54697399

> <PubChem SID>
123109420

> <ChEBI ID of Ligand>


> <ChEMBL ID of Ligand>
CHEMBL1275888

> <DrugBank ID of Ligand>


> <IUPHAR_GRAC ID of Ligand>


> <KEGG ID of Ligand>


> <ZINC ID of Ligand>
ZINC64447245

> <Number of Protein Chains in Target (>1 implies a multichain complex)>
1

> <BindingDB Target Chain Sequence>
MSNSYDSSSIKVLKGLDAVRKRPGMYIGDTDDGTGLHHMVFEVVDNAIDEALAGHCKEII
VTIHADNSVSVQDDGRGIPTGIHPEEGVSAAEVIMTVLHAGGKFDDNSYKVSGGLHGVGV
SVVNALSQKLELVIQREGKIHRQIYEHGVPQAPLAVTGETEKTGTMVRFWPSLETFTNVT
EFEYEILAKRLRELSFLNSGVSIRLRDKRDGKEDHFHYEGGIKAFVEYLNKNKTPIHPNI
FYFSTEKDGIGVEVALQWNDGFQENIYCFTNNIPQRDGGTHLAGFRAAMTRTLNAYMDKE
GYSKKAKVSATGDDAREGLIAVVSVKVPDPKFSSQTKDKLVSSEVKSAVEQQMNELLAEY
LLENPTDAKIVVGKIIDAARAREAARRAREMTRRKGALDLAGLPGKLADCQERDPALSEL
YLVEGDSAGGSAKQGRNRKNQAILPLKGKILNVEKARFDKMLSSQEVATLITALGCGIGR
DEYNPDKLRYHSIIIMTDADVDGSHIRTLLLTFFYRQMPEIVERGHVYIAQPPLYKVKKG
KQEQYIKDDEAMDQYQISIALDGATLHTNASAPALAGEALEKLVSEYNATQKMINRMERR
YPKAMLKELIYQPTLTEADLSDEQTVTRWVNALVSELNDKEQHGSQWKFDVHTNAEQNLF
EPIVRVRTHGVDTDYPLDHEFITGGEYRRICTLGEKLRGLLEEDAFIERGERRQPVASFE
QALDWLVKESRRGLSIQRYKGLGEMNPEQLWETTMDPESRRMLRVTVKDAIAADQLFTTL
MGDAVEPRRAFIEENALKAANIDI

> <PDB ID(s) of Target Chain>
1KZN,3G7E,3NUH,4DUH,4HYP,4KFG,4PRV,4PRX,4PU9,4WUB,4WUC,4WUD,4XTJ,4ZVI,5L3J,5MMN,5MMO,5MMP,5Z4H,5Z4O,5Z9B,5Z9E,5Z9F,5Z9L,5Z9M,5Z9N,5Z9Q,6ENG,6F86,6F8J,6F94,6F96

> <UniProt (SwissProt) Recommended Name of Target Chain>
DNA gyrase subunit B

> <UniProt (SwissProt) Entry Name of Target Chain>
GYRB_ECOLI

> <UniProt (SwissProt) Primary ID of Target Chain>
P0AES6

> <UniProt (SwissProt) Secondary ID(s) of Target Chain>
O08438,P06982,Q2M811

> <UniProt (SwissProt) Alternative ID(s) of Target Chain>


> <UniProt (TrEMBL) Submitted Name of Target Chain>


> <UniProt (TrEMBL) Entry Name of Target Chain>


> <UniProt (TrEMBL) Primary ID of Target Chain>


> <UniProt (TrEMBL) Secondary ID(s) of Target Chain>


> <UniProt (TrEMBL) Alternative ID(s) of Target Chain>


$$$$

  Mrv0541 11241408262D          

 27 30  0  0  0  0            999 V2000
   -0.9848  -12.7583    0.0000 C   0  0  0  0  0  0  0  0  0  0  0  0
   -0.9859  -13.5857    0.0000 C   0  0  0  0  0  0  0  0  0  0  0  0
   -0.2711  -13.9985    0.0000 C   0  0  0  0  0  0  0  0  0  0  0  0
   -0.2729  -12.3455    0.0000 C   0  0  0  0  0  0  0  0  0  0  0  0
    1.2338  -12.5006    0.0000 N   0  0  0  0  0  0  0  0  0  0  0  0
    0.4425  -12.7547    0.0000 C   0  0  0  0  0  0  0  0  0  0  0  0
    0.4406  -13.5864    0.0000 N   0  0  0  0  0  0  0  0  0  0  0  0
    1.2318  -13.8438    0.0000 C   0  0  0  0  0  0  0  0  0  0  0  0
    1.7198  -13.1703    0.0000 C   0  0  0  0  0  0  0  0  0  0  0  0
   -1.6972  -12.3461    0.0000 C   0  0  0  0  0  0  0  0  0  0  0  0
   -1.6961  -11.5200    0.0000 C   0  0  0  0  0  0  0  0  0  0  0  0
   -2.4098  -11.1078    0.0000 N   0  0  0  0  0  0  0  0  0  0  0  0
   -3.1252  -11.5205    0.0000 C   0  0  0  0  0  0  0  0  0  0  0  0
   -3.1223  -12.3498    0.0000 N   0  0  0  0  0  0  0  0  0  0  0  0
   -2.4080  -12.7583    0.0000 C   0  0  0  0  0  0  0  0  0  0  0  0
   -0.2691  -14.8208    0.0000 C   0  0  0  0  0  0  0  0  0  0  0  0
   -0.9850  -15.2331    0.0000 N   0  0  0  0  0  0  0  0  0  0  0  0
   -0.9849  -16.0573    0.0000 C   0  0  0  0  0  0  0  0  0  0  0  0
   -0.2696  -16.4702    0.0000 C   0  0  0  0  0  0  0  0  0  0  0  0
    0.4470  -16.0529    0.0000 C   0  0  0  0  0  0  0  0  0  0  0  0
    0.4433  -15.2300    0.0000 N   0  0  0  0  0  0  0  0  0  0  0  0
    2.5448  -13.1699    0.0000 N   0  0  0  0  0  0  0  0  0  0  0  0
    2.9570  -12.4553    0.0000 C   0  0  0  0  0  0  0  0  0  0  0  0
    2.5443  -11.7410    0.0000 O   0  0  0  0  0  0  0  0  0  0  0  0
    3.7820  -12.4550    0.0000 N   0  0  0  0  0  0  0  0  0  0  0  0
    4.1948  -13.1693    0.0000 C   0  0  0  0  0  0  0  0  0  0  0  0
    5.0198  -13.1689    0.0000 C   0  0  0  0  0  0  0  0  0  0  0  0
  3  7  1  0  0  0  0
 13 14  2  0  0  0  0
  1  2  1  0  0  0  0
 14 15  1  0  0  0  0
 15 10  2  0  0  0  0
  1 10  1  0  0  0  0
  6  4  1  0  0  0  0
  5  6  2  0  0  0  0
 16 17  2  0  0  0  0
  7  8  1  0  0  0  0
 17 18  1  0  0  0  0
  8  9  2  0  0  0  0
 18 19  2  0  0  0  0
  9  5  1  0  0  0  0
 19 20  1  0  0  0  0
  4  1  2  0  0  0  0
 20 21  2  0  0  0  0
 21 16  1  0  0  0  0
  3 16  1  0  0  0  0
  6  7  1  0  0  0  0
  9 22  1  0  0  0  0
 10 11  1  0  0  0  0
 22 23  1  0  0  0  0
 23 24  2  0  0  0  0
 11 12  2  0  0  0  0
 23 25  1  0  0  0  0
  2  3  2  0  0  0  0
 25 26  1  0  0  0  0
 12 13  1  0  0  0  0
 26 27  1  0  0  0  0
M  END
> <From> 
www.bindingDB.org

> <BindingDB Reactant_set_id>
50904841

> <Ligand InChI>
InChI=1S/C18H16N8O/c1-2-21-18(27)25-15-10-26-14(17-22-4-3-5-23-17)6-12(7-16(26)24-15)13-8-19-11-20-9-13/h3-11H,2H2,1H3,(H2,21,25,27)

> <Ligand InChI Key>
XPIBGMJVUKLMNV-UHFFFAOYSA-N

> <BindingDB MonomerID>
50378450

> <BindingDB Ligand Name>
CHEMBL578361

> <Target Name Assigned by Curator or DataSource>
DNA gyrase subunit B

> <Target Source Organism According to Curator or DataSource>
Streptococcus pneumoniae

> <Ki (nM)>


> <IC50 (nM)>
 75

> <Kd (nM)>


> <EC50 (nM)>


> <kon (M-1-s-1)>


> <koff (s-1)>


> <pH>


> <Temp C>


> <Curation/DataSource>
ChEMBL

> <Article DOI>
10.1016/j.bmcl.2009.07.141

> <PMID>
19683922

> <PubChem AID>


> <Patent Number>


> <Authors>
Starr, JT; Sciotti, RJ; Hanna, DL; Huband, MD; Mullins, LM; Cai, H; Gage, JW; Lockard, M; Rauckhorst, MR; Owen, RM; Lall, MS; Tomilo, M; Chen, H; McCurdy, SP; Barbachyn, MR

> <Institution>
Pfizer Inc.

> <Link to Ligand in BindingDB>
http://www.bindingdb.org/bind/chemsearch/marvin/MolStructure.jsp?monomerid=50378450

> <Link to Ligand-Target Pair in BindingDB>
http://www.bindingdb.org/jsp/dbsearch/PrimarySearch_ki.jsp?energyterm=kJ/mole&tag=pol&polymerid=50005944&target=DNA+gyrase+subunit+B&column=ki&startPg=0&Increment=50&submit=Search

> <Link to Ligand-Target Pair in BindingDB>
http://www.bindingdb.org/jsp/dbsearch/PrimarySearch_ki.jsp?energyterm=kJ/mole&tag=r21&monomerid=50378450&enzyme=DNA+gyrase+subunit+B&column=ki&startPg=0&Increment=50&submit=Search

> <Ligand HET ID in PDB>


> <PDB ID(s) for Ligand-Target Complex>


> <PubChem CID>
45484765

> <PubChem SID>
160857533

> <ChEBI ID of Ligand>


> <ChEMBL ID of Ligand>
CHEMBL578361

> <DrugBank ID of Ligand>


> <IUPHAR_GRAC ID of Ligand>


> <KEGG ID of Ligand>


> <ZINC ID of Ligand>
ZINC45291073

> <Number of Protein Chains in Target (>1 implies a multichain complex)>
1

> <BindingDB Target Chain Sequence>
MTEEIKNLQAQDYDASQIQVLEGLEAVRMRPGMYIGSTSKEGLHHLVWEIVDNSIDEALAGFASHIQVFIEPDDSITVVDDGRGIPVDIQEKTGRPAVETVFTVLHAGGKFGGGGYKVSGGLHGVGSSVVNALSTQLDVHVHKNGKIHYQEYRRGHVVADLEIVGDTDKTGTTVHFTPDPKIFTETTIFDFDKLNKRIQELAFLNRGLQISITDKRQGLEQTKHYHYEGGIASYVEYINENKDVIFDTPIYTDGEMDDITVEVAMQYTTGYHENVMSFANNIHTHEGGTHEQGFRTALTRVINDYARKNKLLKDNEDNLTGEDVREGLTAVISVKHPNPQFEGQTKTKLGNSEVVKITNRLFSEAFSDFLMENPQIAKRIVEKGILAAKARVAAKRAREVTRKKSGLEISNLPGKLADCSSNNPAETELFIVEGDSAGGSAKSGRNREFQAILPIRGKILNVEKASMDKILANEEIRSLFTAMGTGFGAEFDVSKARYQKLVLMTDADVDGAHIRTLLLTLIYRYMKPILEAGYVYIAQPPIYGVKVGSEIKEYIQPGADQEIKLQEALARYSEGRTKPTIQRYKGLGEMDDHQLWETTMDPEHRLMARVSVDDAAEADKIFDMLMGDRVEPRREFIEENAVYSTLDV

> <PDB ID(s) of Target Chain>
4Z2C,4Z2D,4Z2E

> <UniProt (SwissProt) Recommended Name of Target Chain>
DNA gyrase subunit B

> <UniProt (SwissProt) Entry Name of Target Chain>
GYRB_STRPN

> <UniProt (SwissProt) Primary ID of Target Chain>
P0A4L9

> <UniProt (SwissProt) Secondary ID(s) of Target Chain>
P48373

> <UniProt (SwissProt) Alternative ID(s) of Target Chain>


> <UniProt (TrEMBL) Submitted Name of Target Chain>


> <UniProt (TrEMBL) Entry Name of Target Chain>


> <UniProt (TrEMBL) Primary ID of Target Chain>


> <UniProt (TrEMBL) Secondary ID(s) of Target Chain>


> <UniProt (TrEMBL) Alternative ID(s) of Target Chain>


$$$$

  SciTegic12211722512D

 27 29  0  0  0  0            999 V2000
    7.1412   -4.7248    0.0000 O   0  0
    6.7327   -4.0199    0.0000 C   0  0
    7.1412   -3.3108    0.0000 C   0  0
    6.7327   -2.6017    0.0000 O   0  0
    7.1412   -1.8967    0.0000 C   0  0
    6.7327   -1.1876    0.0000 C   0  0
    7.9584   -3.3108    0.0000 O   0  0
    5.9155   -4.0199    0.0000 N   0  0
    5.5069   -4.7248    0.0000 C   0  0
    5.8413   -5.4721    0.0000 N   0  0
    5.2348   -6.0200    0.0000 C   0  0
    5.2348   -6.8371    0.0000 C   0  0
    4.5257   -7.2457    0.0000 C   0  0
    3.8166   -6.8371    0.0000 C   0  0
    3.1116   -7.2457    0.0000 N   0  0
    2.4026   -6.8371    0.0000 C   0  0
    2.4026   -6.0200    0.0000 C   0  0
    3.0658   -5.5398    0.0000 C   0  0
    2.8112   -4.7626    0.0000 C   0  0
    3.2913   -4.0993    0.0000 Br  0  0
    1.9940   -4.7626    0.0000 C   0  0
    1.5138   -4.0993    0.0000 Br  0  0
    1.7434   -5.5398    0.0000 N   0  0
    1.6935   -7.2457    0.0000 O   0  0
    3.8166   -6.0200    0.0000 C   0  0
    4.5257   -5.6114    0.0000 C   0  0
    4.6965   -4.8130    0.0000 S   0  0
  1  2  2  0
  2  3  1  0
  3  4  1  0
  4  5  1  0
  5  6  1  0
  3  7  2  0
  2  8  1  0
  8  9  1  0
  9 10  2  0
 10 11  1  0
 11 12  2  0
 12 13  1  0
 13 14  2  0
 14 15  1  0
 15 16  1  0
 16 17  1  0
 17 18  2  0
 18 19  1  0
 19 20  1  0
 19 21  2  0
 21 22  1  0
 21 23  1  0
 17 23  1  0
 16 24  2  0
 14 25  1  0
 25 26  2  0
 11 26  1  0
 26 27  1  0
  9 27  1  0
M  END
> <From> 
www.bindingDB.org

> <BindingDB Reactant_set_id>
50524138

> <Ligand InChI>
InChI=1S/C16H12Br2N4O4S/c1-2-26-15(25)14(24)22-16-21-9-4-3-7(5-11(9)27-16)19-13(23)10-6-8(17)12(18)20-10/h3-6,20H,2H2,1H3,(H,19,23)(H,21,22,24)

> <Ligand InChI Key>
ACPLKSCYERAVRJ-UHFFFAOYSA-N

> <BindingDB MonomerID>
50198322

> <BindingDB Ligand Name>
CHEMBL3936261

> <Target Name Assigned by Curator or DataSource>
DNA Gyrase Subunit B

> <Target Source Organism According to Curator or DataSource>
Escherichia coli

> <Ki (nM)>


> <IC50 (nM)>
 81

> <Kd (nM)>


> <EC50 (nM)>


> <kon (M-1-s-1)>


> <koff (s-1)>


> <pH>


> <Temp C>


> <Curation/DataSource>
ChEMBL

> <Article DOI>
10.1021/acs.jmedchem.6b00864

> <PMID>
27541007

> <PubChem AID>


> <Patent Number>


> <Authors>
Gjorgjieva, M; Tomaic, T; Barancokova, M; Katsamakas, S; Ila, J; Tammela, P; Peterlin Maic, L; Kikelj, D

> <Institution>
University of Ljubljana

> <Link to Ligand in BindingDB>
http://www.bindingdb.org/bind/chemsearch/marvin/MolStructure.jsp?monomerid=50198322

> <Link to Ligand-Target Pair in BindingDB>
http://www.bindingdb.org/jsp/dbsearch/PrimarySearch_ki.jsp?energyterm=kJ/mole&tag=pol&polymerid=2630&target=DNA+Gyrase+Subunit+B&column=ki&startPg=0&Increment=50&submit=Search

> <Link to Ligand-Target Pair in BindingDB>
http://www.bindingdb.org/jsp/dbsearch/PrimarySearch_ki.jsp?energyterm=kJ/mole&tag=r21&monomerid=50198322&enzyme=DNA+Gyrase+Subunit+B&column=ki&startPg=0&Increment=50&submit=Search

> <Ligand HET ID in PDB>


> <PDB ID(s) for Ligand-Target Complex>


> <PubChem CID>
134148692

> <PubChem SID>
375978206

> <ChEBI ID of Ligand>


> <ChEMBL ID of Ligand>


> <DrugBank ID of Ligand>


> <IUPHAR_GRAC ID of Ligand>


> <KEGG ID of Ligand>


> <ZINC ID of Ligand>


> <Number of Protein Chains in Target (>1 implies a multichain complex)>
1

> <BindingDB Target Chain Sequence>
MSNSYDSSSIKVLKGLDAVRKRPGMYIGDTDDGTGLHHMVFEVVDNAIDEALAGHCKEII
VTIHADNSVSVQDDGRGIPTGIHPEEGVSAAEVIMTVLHAGGKFDDNSYKVSGGLHGVGV
SVVNALSQKLELVIQREGKIHRQIYEHGVPQAPLAVTGETEKTGTMVRFWPSLETFTNVT
EFEYEILAKRLRELSFLNSGVSIRLRDKRDGKEDHFHYEGGIKAFVEYLNKNKTPIHPNI
FYFSTEKDGIGVEVALQWNDGFQENIYCFTNNIPQRDGGTHLAGFRAAMTRTLNAYMDKE
GYSKKAKVSATGDDAREGLIAVVSVKVPDPKFSSQTKDKLVSSEVKSAVEQQMNELLAEY
LLENPTDAKIVVGKIIDAARAREAARRAREMTRRKGALDLAGLPGKLADCQERDPALSEL
YLVEGDSAGGSAKQGRNRKNQAILPLKGKILNVEKARFDKMLSSQEVATLITALGCGIGR
DEYNPDKLRYHSIIIMTDADVDGSHIRTLLLTFFYRQMPEIVERGHVYIAQPPLYKVKKG
KQEQYIKDDEAMDQYQISIALDGATLHTNASAPALAGEALEKLVSEYNATQKMINRMERR
YPKAMLKELIYQPTLTEADLSDEQTVTRWVNALVSELNDKEQHGSQWKFDVHTNAEQNLF
EPIVRVRTHGVDTDYPLDHEFITGGEYRRICTLGEKLRGLLEEDAFIERGERRQPVASFE
QALDWLVKESRRGLSIQRYKGLGEMNPEQLWETTMDPESRRMLRVTVKDAIAADQLFTTL
MGDAVEPRRAFIEENALKAANIDI

> <PDB ID(s) of Target Chain>
1KZN,3G7E,3NUH,4DUH,4HYP,4KFG,4PRV,4PRX,4PU9,4WUB,4WUC,4WUD,4XTJ,4ZVI,5L3J,5MMN,5MMO,5MMP,5Z4H,5Z4O,5Z9B,5Z9E,5Z9F,5Z9L,5Z9M,5Z9N,5Z9Q,6ENG,6F86,6F8J,6F94,6F96

> <UniProt (SwissProt) Recommended Name of Target Chain>
DNA gyrase subunit B

> <UniProt (SwissProt) Entry Name of Target Chain>
GYRB_ECOLI

> <UniProt (SwissProt) Primary ID of Target Chain>
P0AES6

> <UniProt (SwissProt) Secondary ID(s) of Target Chain>
O08438,P06982,Q2M811

> <UniProt (SwissProt) Alternative ID(s) of Target Chain>


> <UniProt (TrEMBL) Submitted Name of Target Chain>


> <UniProt (TrEMBL) Entry Name of Target Chain>


> <UniProt (TrEMBL) Primary ID of Target Chain>


> <UniProt (TrEMBL) Secondary ID(s) of Target Chain>


> <UniProt (TrEMBL) Alternative ID(s) of Target Chain>


$$$$

  Mrv0541 11241420052D          

 22 24  0  0  0  0            999 V2000
   19.4770   -3.1207    0.0000 C   0  0  0  0  0  0  0  0  0  0  0  0
   19.4758   -3.9480    0.0000 C   0  0  0  0  0  0  0  0  0  0  0  0
   20.1906   -4.3609    0.0000 N   0  0  0  0  0  0  0  0  0  0  0  0
   20.1888   -2.7079    0.0000 C   0  0  0  0  0  0  0  0  0  0  0  0
   18.7625   -2.7083    0.0000 C   0  0  0  0  0  0  0  0  0  0  0  0
   18.7657   -1.8824    0.0000 C   0  0  0  0  0  0  0  0  0  0  0  0
   18.0520   -1.4703    0.0000 N   0  0  0  0  0  0  0  0  0  0  0  0
   17.3366   -1.8830    0.0000 C   0  0  0  0  0  0  0  0  0  0  0  0
   17.3395   -2.7122    0.0000 N   0  0  0  0  0  0  0  0  0  0  0  0
   18.0538   -3.1206    0.0000 C   0  0  0  0  0  0  0  0  0  0  0  0
   20.9042   -3.1171    0.0000 C   0  0  0  0  0  0  0  0  0  0  0  0
   20.9045   -3.9480    0.0000 C   0  0  0  0  0  0  0  0  0  0  0  0
   21.6948   -4.2046    0.0000 S   0  0  0  0  0  0  0  0  0  0  0  0
   22.1831   -3.5322    0.0000 C   0  0  0  0  0  0  0  0  0  0  0  0
   21.6944   -2.8601    0.0000 N   0  0  0  0  0  0  0  0  0  0  0  0
   23.0081   -3.5319    0.0000 N   0  0  0  0  0  0  0  0  0  0  0  0
   23.4204   -2.8173    0.0000 C   0  0  0  0  0  0  0  0  0  0  0  0
   24.2454   -2.8170    0.0000 O   0  0  0  0  0  0  0  0  0  0  0  0
   23.0076   -2.1030    0.0000 N   0  0  0  0  0  0  0  0  0  0  0  0
   23.4199   -1.3884    0.0000 C   0  0  0  0  0  0  0  0  0  0  0  0
   23.0072   -0.6741    0.0000 C   0  0  0  0  0  0  0  0  0  0  0  0
   18.7611   -4.3599    0.0000 O   0  0  0  0  0  0  0  0  0  0  0  0
  1  2  1  0  0  0  0
  2  3  1  0  0  0  0
  3 12  1  0  0  0  0
 11  4  1  0  0  0  0
  4  1  2  0  0  0  0
  1  5  1  0  0  0  0
  5  6  2  0  0  0  0
  6  7  1  0  0  0  0
  7  8  2  0  0  0  0
  8  9  1  0  0  0  0
  9 10  2  0  0  0  0
 10  5  1  0  0  0  0
 11 12  2  0  0  0  0
 12 13  1  0  0  0  0
 13 14  1  0  0  0  0
 14 15  2  0  0  0  0
 15 11  1  0  0  0  0
 14 16  1  0  0  0  0
 16 17  1  0  0  0  0
 17 18  2  0  0  0  0
 17 19  1  0  0  0  0
 19 20  1  0  0  0  0
 20 21  1  0  0  0  0
  2 22  2  0  0  0  0
M  END
> <From> 
www.bindingDB.org

> <BindingDB Reactant_set_id>
51091633

> <Ligand InChI>
InChI=1S/C13H12N6O2S/c1-2-16-12(21)19-13-17-9-3-8(7-4-14-6-15-5-7)10(20)18-11(9)22-13/h3-6H,2H2,1H3,(H,18,20)(H2,16,17,19,21)

> <Ligand InChI Key>
VZSGYUDWPWWDMZ-UHFFFAOYSA-N

> <BindingDB MonomerID>
50447321

> <BindingDB Ligand Name>
CHEMBL3114213

> <Target Name Assigned by Curator or DataSource>
DNA gyrase subunit B

> <Target Source Organism According to Curator or DataSource>


> <Ki (nM)>


> <IC50 (nM)>
 84

> <Kd (nM)>


> <EC50 (nM)>


> <kon (M-1-s-1)>


> <koff (s-1)>


> <pH>


> <Temp C>


> <Curation/DataSource>
ChEMBL

> <Article DOI>
10.1016/j.bmcl.2013.12.080

> <PMID>
24405701

> <PubChem AID>


> <Patent Number>


> <Authors>
Kale, RR; Kale, MG; Waterson, D; Raichurkar, A; Hameed, SP; Manjunatha, MR; Kishore Reddy, BK; Malolanarasimhan, K; Shinde, V; Koushik, K; Jena, LK; Menasinakai, S; Humnabadkar, V; Madhavapeddi, P; Basavarajappa, H; Sharma, S; Nandishaiah, R; Mahesh Kumar, KN; Ganguly, S; Ahuja, V; Gaonkar, S; Naveen Kumar, CN; Ogg, D; Boriack-Sjodin, PA; Sambandamurthy, VK; de Sousa, SM; Ghorpade, SR

> <Institution>
AstraZeneca

> <Link to Ligand in BindingDB>
http://www.bindingdb.org/bind/chemsearch/marvin/MolStructure.jsp?monomerid=50447321

> <Link to Ligand-Target Pair in BindingDB>
http://www.bindingdb.org/jsp/dbsearch/PrimarySearch_ki.jsp?energyterm=kJ/mole&tag=pol&polymerid=50006452&target=DNA+gyrase+subunit+B&column=ki&startPg=0&Increment=50&submit=Search

> <Link to Ligand-Target Pair in BindingDB>
http://www.bindingdb.org/jsp/dbsearch/PrimarySearch_ki.jsp?energyterm=kJ/mole&tag=r21&monomerid=50447321&enzyme=DNA+gyrase+subunit+B&column=ki&startPg=0&Increment=50&submit=Search

> <Ligand HET ID in PDB>


> <PDB ID(s) for Ligand-Target Complex>


> <PubChem CID>
76314162

> <PubChem SID>
194945217

> <ChEBI ID of Ligand>


> <ChEMBL ID of Ligand>
CHEMBL3114213

> <DrugBank ID of Ligand>


> <IUPHAR_GRAC ID of Ligand>


> <KEGG ID of Ligand>


> <ZINC ID of Ligand>


> <Number of Protein Chains in Target (>1 implies a multichain complex)>
1

> <BindingDB Target Chain Sequence>
MAAQKNNAPKEYGADSITILEGLEAVRKRPGMYIGSTGERGLHHLIWEVVDNAVDEAMAGFATRVDVKIHADGSVEVRDDGRGIPVEMHATGMPTIDVVMTQLHAGGKFDGETYAVSGGLHGVGVSVVNALSTRLEATVLRDGYEWFQYYDRSVPGKLKQGGETKETGTTIRFWADPEIFETTDYNFETVARRLQEMAFLNKGLTIELTDERVTAEEVVDDVVKDTAEAPKTADEKAAEATGPSKVKHRVFHYPGGLVDYVKHINRTKTPIQQSIIDFDGKGPGHEVEIAMQWNAGYSESVHTFANTINTHEGGTHEEGFRAALTSVVNRYAKDKKLLKDKDPNLTGDDIREGLAAVISVKVAEPQFEGQTKTKLGNTEVKSFVQKICNEQLQHWFEANPAEAKTVVNKAVSSAQARIAARKARELVRRKSATDIGGLPGKLADCRSTDPSKSELYVVEGDSAGGSAKSGRDSMFQAILPLRGKIINVEKARIDRVLKNTEVQSIITALGTGIHDEFDISKLRYHKIVLMADADVDGQHISTLLLTLLFRFMKPLVENGHIFLAQPPLYKLKWQRSEPEFAYSDRERDGLLEAGRAAGKKINVDDGIQRYKGLGEMDAKELWETTMDPSVRVLRQVTLDDAAAADELFSILMGEDVEARRSFITRNAKDVRFLDV

> <PDB ID(s) of Target Chain>
4BAE

> <UniProt (SwissProt) Recommended Name of Target Chain>
DNA gyrase subunit B

> <UniProt (SwissProt) Entry Name of Target Chain>
GYRB_MYCSM

> <UniProt (SwissProt) Primary ID of Target Chain>
P0C559

> <UniProt (SwissProt) Secondary ID(s) of Target Chain>
P48355,Q59555

> <UniProt (SwissProt) Alternative ID(s) of Target Chain>


> <UniProt (TrEMBL) Submitted Name of Target Chain>


> <UniProt (TrEMBL) Entry Name of Target Chain>


> <UniProt (TrEMBL) Primary ID of Target Chain>


> <UniProt (TrEMBL) Secondary ID(s) of Target Chain>


> <UniProt (TrEMBL) Alternative ID(s) of Target Chain>


$$$$

  Mrv0541 11231413392D          

 47 51  0  0  0  0            999 V2000
   -0.3447    0.5596    0.0000 C   0  0  0  0  0  0  0  0  0  0  0  0
   -1.0707    0.9611    0.0000 C   0  0  1  0  0  0  0  0  0  0  0  0
   -1.7775    0.5356    0.0000 C   0  0  2  0  0  0  0  0  0  0  0  0
   -1.7646   -0.2933    0.0000 C   0  0  2  0  0  0  0  0  0  0  0  0
   -1.0386   -0.6949    0.0000 C   0  0  1  0  0  0  0  0  0  0  0  0
   -0.3256   -0.2675    0.0000 O   0  0  0  0  0  0  0  0  0  0  0  0
   -1.0243   -1.5197    0.0000 O   0  0  0  0  0  0  0  0  0  0  0  0
   -0.3046   -1.9310    0.0000 C   0  0  0  0  0  0  0  0  0  0  0  0
   -0.3054   -2.7555    0.0000 C   0  0  0  0  0  0  0  0  0  0  0  0
    0.4103   -1.5168    0.0000 C   0  0  0  0  0  0  0  0  0  0  0  0
    1.1247   -1.9344    0.0000 C   0  0  0  0  0  0  0  0  0  0  0  0
    1.1229   -2.7591    0.0000 C   0  0  0  0  0  0  0  0  0  0  0  0
    0.4077   -3.1707    0.0000 C   0  0  0  0  0  0  0  0  0  0  0  0
    0.4064   -3.9913    0.0000 O   0  0  0  0  0  0  0  0  0  0  0  0
    1.1188   -4.4067    0.0000 C   0  0  0  0  0  0  0  0  0  0  0  0
    1.8340   -3.9952    0.0000 C   0  0  0  0  0  0  0  0  0  0  0  0
    1.8370   -3.1683    0.0000 C   0  0  0  0  0  0  0  0  0  0  0  0
    2.5514   -2.7558    0.0000 O   0  0  0  0  0  0  0  0  0  0  0  0
    1.1164   -5.2317    0.0000 O   0  0  0  0  0  0  0  0  0  0  0  0
    2.5475   -4.4094    0.0000 N   0  0  0  0  0  0  0  0  0  0  0  0
    2.5454   -5.2344    0.0000 C   0  0  0  0  0  0  0  0  0  0  0  0
    1.8299   -5.6452    0.0000 O   0  0  0  0  0  0  0  0  0  0  0  0
    3.2588   -5.6487    0.0000 C   0  0  0  0  0  0  0  0  0  0  0  0
    3.2539   -6.4729    0.0000 C   0  0  0  0  0  0  0  0  0  0  0  0
    3.9665   -6.8870    0.0000 C   0  0  0  0  0  0  0  0  0  0  0  0
    4.6830   -6.4763    0.0000 C   0  0  0  0  0  0  0  0  0  0  0  0
    4.6823   -5.6470    0.0000 C   0  0  0  0  0  0  0  0  0  0  0  0
    3.9692   -5.2366    0.0000 C   0  0  0  0  0  0  0  0  0  0  0  0
    5.3970   -6.8897    0.0000 O   0  0  0  0  0  0  0  0  0  0  0  0
    5.3964   -5.2339    0.0000 C   0  0  0  0  0  0  0  0  0  0  0  0
    0.4828    0.5785    0.0000 C   0  0  0  0  0  0  0  0  0  0  0  0
   -0.3556    1.3827    0.0000 C   0  0  0  0  0  0  0  0  0  0  0  0
   -1.0858    1.7859    0.0000 O   0  0  0  0  0  0  0  0  0  0  0  0
   -0.3791    2.2115    0.0000 C   0  0  0  0  0  0  0  0  0  0  0  0
   -2.4988    0.9359    0.0000 O   0  0  0  0  0  0  0  0  0  0  0  0
   -2.5128    1.7608    0.0000 C   0  0  0  0  0  0  0  0  0  0  0  0
   -3.2339    2.1614    0.0000 C   0  0  0  0  0  0  0  0  0  0  0  0
   -1.8054    2.1854    0.0000 O   0  0  0  0  0  0  0  0  0  0  0  0
   -2.4719   -0.7179    0.0000 O   0  0  0  0  0  0  0  0  0  0  0  0
   -3.4697    2.9550    0.0000 C   0  0  0  0  0  0  0  0  0  0  0  0
   -4.2944    2.9781    0.0000 C   0  0  0  0  0  0  0  0  0  0  0  0
   -4.5711    2.2009    0.0000 C   0  0  0  0  0  0  0  0  0  0  0  0
   -3.9175    1.6975    0.0000 N   0  0  0  0  0  0  0  0  0  0  0  0
   -5.2891    1.7966    0.0000 C   0  0  0  0  0  0  0  0  0  0  0  0
   -1.0207   -3.1664    0.0000 C   0  0  0  0  0  0  0  0  0  0  0  0
    6.1113   -5.6456    0.0000 C   0  0  0  0  0  0  0  0  0  0  0  0
    6.8253   -5.2323    0.0000 C   0  0  0  0  0  0  0  0  0  0  0  0
 11 10  1  0  0  0  0
 21 23  1  0  0  0  0
 11 12  2  0  0  0  0
 23 24  2  0  0  0  0
  3  4  1  0  0  0  0
 24 25  1  0  0  0  0
 12 13  1  0  0  0  0
 25 26  2  0  0  0  0
  4  5  1  0  0  0  0
 26 27  1  0  0  0  0
  5  6  1  0  0  0  0
 27 28  2  0  0  0  0
 28 23  1  0  0  0  0
 26 29  1  0  0  0  0
  5  7  1  1  0  0  0
 27 30  1  0  0  0  0
  2  1  1  0  0  0  0
  1 31  1  0  0  0  0
  7  8  1  0  0  0  0
  1 32  1  0  0  0  0
 12 17  1  0  0  0  0
  2 33  1  1  0  0  0
 13 14  1  0  0  0  0
 33 34  1  0  0  0  0
 14 15  1  0  0  0  0
  3 35  1  6  0  0  0
 15 16  1  0  0  0  0
 35 36  1  0  0  0  0
 16 17  2  0  0  0  0
 36 37  1  0  0  0  0
  8  9  1  0  0  0  0
 36 38  2  0  0  0  0
 17 18  1  0  0  0  0
  4 39  1  6  0  0  0
 37 40  2  0  0  0  0
  1  6  1  0  0  0  0
 15 19  2  0  0  0  0
  3  2  1  0  0  0  0
 16 20  1  0  0  0  0
 40 41  1  0  0  0  0
 41 42  2  0  0  0  0
 42 43  1  0  0  0  0
 43 37  1  0  0  0  0
  8 10  2  0  0  0  0
 42 44  1  0  0  0  0
 20 21  1  0  0  0  0
  9 45  1  0  0  0  0
  9 13  2  0  0  0  0
 30 46  1  0  0  0  0
 21 22  2  0  0  0  0
 46 47  1  0  0  0  0
M  END
> <From> 
www.bindingDB.org

> <BindingDB Reactant_set_id>
50607686

> <Ligand InChI>
InChI=1S/C34H38N2O11/c1-7-8-18-15-19(10-13-22(18)37)30(40)36-24-25(38)20-11-14-23(17(3)27(20)45-32(24)42)44-33-26(39)28(29(43-6)34(4,5)47-33)46-31(41)21-12-9-16(2)35-21/h9-15,26,28-29,33,35,37-39H,7-8H2,1-6H3,(H,36,40)/t26-,28+,29-,33-/m1/s1

> <Ligand InChI Key>
BSULDEYEQDESSB-ZQZBKPNISA-N

> <BindingDB MonomerID>
50330315

> <BindingDB Ligand Name>
(3R,4S,5R,6R)-5-hydroxy-6-(4-hydroxy-3-(4-hydroxy-3-propylbenzamido)-8-methyl-2-oxo-2H-chromen-7-yloxy)-3-methoxy-2,2-dimethyltetrahydro-2H-pyran-4-yl 5-methyl-1H-pyrrole-2-carboxylate::CHEMBL1275843

> <Target Name Assigned by Curator or DataSource>
DNA Gyrase Subunit B

> <Target Source Organism According to Curator or DataSource>
Escherichia coli

> <Ki (nM)>


> <IC50 (nM)>
 84

> <Kd (nM)>


> <EC50 (nM)>


> <kon (M-1-s-1)>


> <koff (s-1)>


> <pH>


> <Temp C>


> <Curation/DataSource>
ChEMBL

> <Article DOI>
10.1128/AAC.01235-07

> <PMID>
18347114

> <PubChem AID>


> <Patent Number>


> <Authors>
Anderle, C; Stieger, M; Burrell, M; Reinelt, S; Maxwell, A; Page, M; Heide, L

> <Institution>
Universit&#228;t T&#252;bingen

> <Link to Ligand in BindingDB>
http://www.bindingdb.org/bind/chemsearch/marvin/MolStructure.jsp?monomerid=50330315

> <Link to Ligand-Target Pair in BindingDB>
http://www.bindingdb.org/jsp/dbsearch/PrimarySearch_ki.jsp?energyterm=kJ/mole&tag=pol&polymerid=2630&target=DNA+Gyrase+Subunit+B&column=ki&startPg=0&Increment=50&submit=Search

> <Link to Ligand-Target Pair in BindingDB>
http://www.bindingdb.org/jsp/dbsearch/PrimarySearch_ki.jsp?energyterm=kJ/mole&tag=r21&monomerid=50330315&enzyme=DNA+Gyrase+Subunit+B&column=ki&startPg=0&Increment=50&submit=Search

> <Ligand HET ID in PDB>


> <PDB ID(s) for Ligand-Target Complex>


> <PubChem CID>
54732409

> <PubChem SID>
123109430

> <ChEBI ID of Ligand>


> <ChEMBL ID of Ligand>
CHEMBL1275843

> <DrugBank ID of Ligand>


> <IUPHAR_GRAC ID of Ligand>


> <KEGG ID of Ligand>


> <ZINC ID of Ligand>
ZINC72136377

> <Number of Protein Chains in Target (>1 implies a multichain complex)>
1

> <BindingDB Target Chain Sequence>
MSNSYDSSSIKVLKGLDAVRKRPGMYIGDTDDGTGLHHMVFEVVDNAIDEALAGHCKEII
VTIHADNSVSVQDDGRGIPTGIHPEEGVSAAEVIMTVLHAGGKFDDNSYKVSGGLHGVGV
SVVNALSQKLELVIQREGKIHRQIYEHGVPQAPLAVTGETEKTGTMVRFWPSLETFTNVT
EFEYEILAKRLRELSFLNSGVSIRLRDKRDGKEDHFHYEGGIKAFVEYLNKNKTPIHPNI
FYFSTEKDGIGVEVALQWNDGFQENIYCFTNNIPQRDGGTHLAGFRAAMTRTLNAYMDKE
GYSKKAKVSATGDDAREGLIAVVSVKVPDPKFSSQTKDKLVSSEVKSAVEQQMNELLAEY
LLENPTDAKIVVGKIIDAARAREAARRAREMTRRKGALDLAGLPGKLADCQERDPALSEL
YLVEGDSAGGSAKQGRNRKNQAILPLKGKILNVEKARFDKMLSSQEVATLITALGCGIGR
DEYNPDKLRYHSIIIMTDADVDGSHIRTLLLTFFYRQMPEIVERGHVYIAQPPLYKVKKG
KQEQYIKDDEAMDQYQISIALDGATLHTNASAPALAGEALEKLVSEYNATQKMINRMERR
YPKAMLKELIYQPTLTEADLSDEQTVTRWVNALVSELNDKEQHGSQWKFDVHTNAEQNLF
EPIVRVRTHGVDTDYPLDHEFITGGEYRRICTLGEKLRGLLEEDAFIERGERRQPVASFE
QALDWLVKESRRGLSIQRYKGLGEMNPEQLWETTMDPESRRMLRVTVKDAIAADQLFTTL
MGDAVEPRRAFIEENALKAANIDI

> <PDB ID(s) of Target Chain>
1KZN,3G7E,3NUH,4DUH,4HYP,4KFG,4PRV,4PRX,4PU9,4WUB,4WUC,4WUD,4XTJ,4ZVI,5L3J,5MMN,5MMO,5MMP,5Z4H,5Z4O,5Z9B,5Z9E,5Z9F,5Z9L,5Z9M,5Z9N,5Z9Q,6ENG,6F86,6F8J,6F94,6F96

> <UniProt (SwissProt) Recommended Name of Target Chain>
DNA gyrase subunit B

> <UniProt (SwissProt) Entry Name of Target Chain>
GYRB_ECOLI

> <UniProt (SwissProt) Primary ID of Target Chain>
P0AES6

> <UniProt (SwissProt) Secondary ID(s) of Target Chain>
O08438,P06982,Q2M811

> <UniProt (SwissProt) Alternative ID(s) of Target Chain>


> <UniProt (TrEMBL) Submitted Name of Target Chain>


> <UniProt (TrEMBL) Entry Name of Target Chain>


> <UniProt (TrEMBL) Primary ID of Target Chain>


> <UniProt (TrEMBL) Secondary ID(s) of Target Chain>


> <UniProt (TrEMBL) Alternative ID(s) of Target Chain>


$$$$

  Mrv0541 11231413392D          

 45 49  0  0  0  0            999 V2000
   12.6166  -13.7630    0.0000 C   0  0  0  0  0  0  0  0  0  0  0  0
   11.8907  -13.3615    0.0000 C   0  0  1  0  0  0  0  0  0  0  0  0
   11.1839  -13.7870    0.0000 C   0  0  2  0  0  0  0  0  0  0  0  0
   11.1969  -14.6159    0.0000 C   0  0  2  0  0  0  0  0  0  0  0  0
   11.9227  -15.0174    0.0000 C   0  0  1  0  0  0  0  0  0  0  0  0
   12.6357  -14.5901    0.0000 O   0  0  0  0  0  0  0  0  0  0  0  0
   11.9370  -15.8423    0.0000 O   0  0  0  0  0  0  0  0  0  0  0  0
   12.6567  -16.2536    0.0000 C   0  0  0  0  0  0  0  0  0  0  0  0
   12.6561  -17.0781    0.0000 C   0  0  0  0  0  0  0  0  0  0  0  0
   13.3716  -15.8393    0.0000 C   0  0  0  0  0  0  0  0  0  0  0  0
   14.0861  -16.2570    0.0000 C   0  0  0  0  0  0  0  0  0  0  0  0
   14.0843  -17.0817    0.0000 C   0  0  0  0  0  0  0  0  0  0  0  0
   13.3690  -17.4932    0.0000 C   0  0  0  0  0  0  0  0  0  0  0  0
   13.3678  -18.3139    0.0000 O   0  0  0  0  0  0  0  0  0  0  0  0
   14.0801  -18.7293    0.0000 C   0  0  0  0  0  0  0  0  0  0  0  0
   14.7954  -18.3177    0.0000 C   0  0  0  0  0  0  0  0  0  0  0  0
   14.7983  -17.4908    0.0000 C   0  0  0  0  0  0  0  0  0  0  0  0
   15.5128  -17.0784    0.0000 O   0  0  0  0  0  0  0  0  0  0  0  0
   14.0778  -19.5541    0.0000 O   0  0  0  0  0  0  0  0  0  0  0  0
   15.5088  -18.7319    0.0000 N   0  0  0  0  0  0  0  0  0  0  0  0
   15.5068  -19.5569    0.0000 C   0  0  0  0  0  0  0  0  0  0  0  0
   14.7912  -19.9676    0.0000 O   0  0  0  0  0  0  0  0  0  0  0  0
   16.2201  -19.9712    0.0000 C   0  0  0  0  0  0  0  0  0  0  0  0
   16.2152  -20.7953    0.0000 C   0  0  0  0  0  0  0  0  0  0  0  0
   16.9278  -21.2096    0.0000 C   0  0  0  0  0  0  0  0  0  0  0  0
   17.6442  -20.7988    0.0000 C   0  0  0  0  0  0  0  0  0  0  0  0
   17.6437  -19.9696    0.0000 C   0  0  0  0  0  0  0  0  0  0  0  0
   16.9305  -19.5591    0.0000 C   0  0  0  0  0  0  0  0  0  0  0  0
   13.4441  -13.7442    0.0000 C   0  0  0  0  0  0  0  0  0  0  0  0
   12.6057  -12.9400    0.0000 C   0  0  0  0  0  0  0  0  0  0  0  0
   11.8755  -12.5366    0.0000 O   0  0  0  0  0  0  0  0  0  0  0  0
   12.5824  -12.1112    0.0000 C   0  0  0  0  0  0  0  0  0  0  0  0
   10.4626  -13.3867    0.0000 O   0  0  0  0  0  0  0  0  0  0  0  0
   10.4485  -12.5618    0.0000 C   0  0  0  0  0  0  0  0  0  0  0  0
    9.7276  -12.1612    0.0000 C   0  0  0  0  0  0  0  0  0  0  0  0
   11.1559  -12.1373    0.0000 O   0  0  0  0  0  0  0  0  0  0  0  0
   10.4895  -15.0404    0.0000 O   0  0  0  0  0  0  0  0  0  0  0  0
    9.4918  -11.3677    0.0000 C   0  0  0  0  0  0  0  0  0  0  0  0
    8.6671  -11.3446    0.0000 C   0  0  0  0  0  0  0  0  0  0  0  0
    8.3903  -12.1218    0.0000 C   0  0  0  0  0  0  0  0  0  0  0  0
    9.0440  -12.6251    0.0000 N   0  0  0  0  0  0  0  0  0  0  0  0
    7.6723  -12.5260    0.0000 C   0  0  0  0  0  0  0  0  0  0  0  0
   11.9407  -17.4889    0.0000 Cl  0  0  0  0  0  0  0  0  0  0  0  0
   18.3582  -21.2121    0.0000 S   0  0  0  0  0  0  0  0  0  0  0  0
   18.3573  -22.0371    0.0000 C   0  0  0  0  0  0  0  0  0  0  0  0
  9 13  2  0  0  0  0
 21 22  2  0  0  0  0
 11 10  1  0  0  0  0
 21 23  1  0  0  0  0
 11 12  2  0  0  0  0
 23 24  2  0  0  0  0
  3  4  1  0  0  0  0
 24 25  1  0  0  0  0
 12 13  1  0  0  0  0
 25 26  2  0  0  0  0
  4  5  1  0  0  0  0
 26 27  1  0  0  0  0
  5  6  1  0  0  0  0
 27 28  2  0  0  0  0
 28 23  1  0  0  0  0
  1 29  1  0  0  0  0
  5  7  1  1  0  0  0
  1 30  1  0  0  0  0
  2  1  1  0  0  0  0
  2 31  1  1  0  0  0
  7  8  1  0  0  0  0
 31 32  1  0  0  0  0
 12 17  1  0  0  0  0
  3 33  1  6  0  0  0
 13 14  1  0  0  0  0
 33 34  1  0  0  0  0
 14 15  1  0  0  0  0
 34 35  1  0  0  0  0
 15 16  1  0  0  0  0
 34 36  2  0  0  0  0
 16 17  2  0  0  0  0
  4 37  1  6  0  0  0
 35 38  2  0  0  0  0
  8  9  1  0  0  0  0
 17 18  1  0  0  0  0
  1  6  1  0  0  0  0
 15 19  2  0  0  0  0
 38 39  1  0  0  0  0
 39 40  2  0  0  0  0
 40 41  1  0  0  0  0
 41 35  1  0  0  0  0
  3  2  1  0  0  0  0
 40 42  1  0  0  0  0
 16 20  1  0  0  0  0
  9 43  1  0  0  0  0
  8 10  2  0  0  0  0
 26 44  1  0  0  0  0
 20 21  1  0  0  0  0
 44 45  1  0  0  0  0
M  END
> <From> 
www.bindingDB.org

> <BindingDB Reactant_set_id>
50607685

> <Ligand InChI>
InChI=1S/C31H31ClN2O10S/c1-14-6-12-18(33-14)28(38)43-25-23(36)30(44-31(2,3)26(25)40-4)41-19-13-11-17-22(35)21(29(39)42-24(17)20(19)32)34-27(37)15-7-9-16(45-5)10-8-15/h6-13,23,25-26,30,33,35-36H,1-5H3,(H,34,37)/t23-,25+,26-,30-/m1/s1

> <Ligand InChI Key>
XOMHJPBHEZEXNM-CPPKFOPJSA-N

> <BindingDB MonomerID>
50330314

> <BindingDB Ligand Name>
(3R,4S,5R,6S)-6-(8-chloro-4-hydroxy-3-(4-(methylthio)benzamido)-2-oxo-2H-chromen-7-yloxy)-5-hydroxy-3-methoxy-2,2-dimethyltetrahydro-2H-pyran-4-yl 5-methyl-1H-pyrrole-2-carboxylate::CHEMBL1275844

> <Target Name Assigned by Curator or DataSource>
DNA Gyrase Subunit B

> <Target Source Organism According to Curator or DataSource>
Escherichia coli

> <Ki (nM)>


> <IC50 (nM)>
 84

> <Kd (nM)>


> <EC50 (nM)>


> <kon (M-1-s-1)>


> <koff (s-1)>


> <pH>


> <Temp C>


> <Curation/DataSource>
ChEMBL

> <Article DOI>
10.1128/AAC.01235-07

> <PMID>
18347114

> <PubChem AID>


> <Patent Number>


> <Authors>
Anderle, C; Stieger, M; Burrell, M; Reinelt, S; Maxwell, A; Page, M; Heide, L

> <Institution>
Universit&#228;t T&#252;bingen

> <Link to Ligand in BindingDB>
http://www.bindingdb.org/bind/chemsearch/marvin/MolStructure.jsp?monomerid=50330314

> <Link to Ligand-Target Pair in BindingDB>
http://www.bindingdb.org/jsp/dbsearch/PrimarySearch_ki.jsp?energyterm=kJ/mole&tag=pol&polymerid=2630&target=DNA+Gyrase+Subunit+B&column=ki&startPg=0&Increment=50&submit=Search

> <Link to Ligand-Target Pair in BindingDB>
http://www.bindingdb.org/jsp/dbsearch/PrimarySearch_ki.jsp?energyterm=kJ/mole&tag=r21&monomerid=50330314&enzyme=DNA+Gyrase+Subunit+B&column=ki&startPg=0&Increment=50&submit=Search

> <Ligand HET ID in PDB>


> <PDB ID(s) for Ligand-Target Complex>


> <PubChem CID>
54729450

> <PubChem SID>
123109429

> <ChEBI ID of Ligand>


> <ChEMBL ID of Ligand>
CHEMBL1275844

> <DrugBank ID of Ligand>


> <IUPHAR_GRAC ID of Ligand>


> <KEGG ID of Ligand>


> <ZINC ID of Ligand>
ZINC72136378

> <Number of Protein Chains in Target (>1 implies a multichain complex)>
1

> <BindingDB Target Chain Sequence>
MSNSYDSSSIKVLKGLDAVRKRPGMYIGDTDDGTGLHHMVFEVVDNAIDEALAGHCKEII
VTIHADNSVSVQDDGRGIPTGIHPEEGVSAAEVIMTVLHAGGKFDDNSYKVSGGLHGVGV
SVVNALSQKLELVIQREGKIHRQIYEHGVPQAPLAVTGETEKTGTMVRFWPSLETFTNVT
EFEYEILAKRLRELSFLNSGVSIRLRDKRDGKEDHFHYEGGIKAFVEYLNKNKTPIHPNI
FYFSTEKDGIGVEVALQWNDGFQENIYCFTNNIPQRDGGTHLAGFRAAMTRTLNAYMDKE
GYSKKAKVSATGDDAREGLIAVVSVKVPDPKFSSQTKDKLVSSEVKSAVEQQMNELLAEY
LLENPTDAKIVVGKIIDAARAREAARRAREMTRRKGALDLAGLPGKLADCQERDPALSEL
YLVEGDSAGGSAKQGRNRKNQAILPLKGKILNVEKARFDKMLSSQEVATLITALGCGIGR
DEYNPDKLRYHSIIIMTDADVDGSHIRTLLLTFFYRQMPEIVERGHVYIAQPPLYKVKKG
KQEQYIKDDEAMDQYQISIALDGATLHTNASAPALAGEALEKLVSEYNATQKMINRMERR
YPKAMLKELIYQPTLTEADLSDEQTVTRWVNALVSELNDKEQHGSQWKFDVHTNAEQNLF
EPIVRVRTHGVDTDYPLDHEFITGGEYRRICTLGEKLRGLLEEDAFIERGERRQPVASFE
QALDWLVKESRRGLSIQRYKGLGEMNPEQLWETTMDPESRRMLRVTVKDAIAADQLFTTL
MGDAVEPRRAFIEENALKAANIDI

> <PDB ID(s) of Target Chain>
1KZN,3G7E,3NUH,4DUH,4HYP,4KFG,4PRV,4PRX,4PU9,4WUB,4WUC,4WUD,4XTJ,4ZVI,5L3J,5MMN,5MMO,5MMP,5Z4H,5Z4O,5Z9B,5Z9E,5Z9F,5Z9L,5Z9M,5Z9N,5Z9Q,6ENG,6F86,6F8J,6F94,6F96

> <UniProt (SwissProt) Recommended Name of Target Chain>
DNA gyrase subunit B

> <UniProt (SwissProt) Entry Name of Target Chain>
GYRB_ECOLI

> <UniProt (SwissProt) Primary ID of Target Chain>
P0AES6

> <UniProt (SwissProt) Secondary ID(s) of Target Chain>
O08438,P06982,Q2M811

> <UniProt (SwissProt) Alternative ID(s) of Target Chain>


> <UniProt (TrEMBL) Submitted Name of Target Chain>


> <UniProt (TrEMBL) Entry Name of Target Chain>


> <UniProt (TrEMBL) Primary ID of Target Chain>


> <UniProt (TrEMBL) Secondary ID(s) of Target Chain>


> <UniProt (TrEMBL) Alternative ID(s) of Target Chain>


$$$$

  Mrv0541 11231413392D          

 46 50  0  0  0  0            999 V2000
   13.7162   -6.3014    0.0000 C   0  0  0  0  0  0  0  0  0  0  0  0
   12.9904   -5.8999    0.0000 C   0  0  1  0  0  0  0  0  0  0  0  0
   12.2836   -6.3254    0.0000 C   0  0  2  0  0  0  0  0  0  0  0  0
   12.2965   -7.1542    0.0000 C   0  0  2  0  0  0  0  0  0  0  0  0
   13.0224   -7.5558    0.0000 C   0  0  1  0  0  0  0  0  0  0  0  0
   13.7354   -7.1284    0.0000 O   0  0  0  0  0  0  0  0  0  0  0  0
   13.0367   -8.3806    0.0000 O   0  0  0  0  0  0  0  0  0  0  0  0
   13.7564   -8.7919    0.0000 C   0  0  0  0  0  0  0  0  0  0  0  0
   13.7557   -9.6163    0.0000 C   0  0  0  0  0  0  0  0  0  0  0  0
   14.4713   -8.3776    0.0000 C   0  0  0  0  0  0  0  0  0  0  0  0
   15.1857   -8.7953    0.0000 C   0  0  0  0  0  0  0  0  0  0  0  0
   15.1839   -9.6199    0.0000 C   0  0  0  0  0  0  0  0  0  0  0  0
   14.4686  -10.0315    0.0000 C   0  0  0  0  0  0  0  0  0  0  0  0
   14.4674  -10.8521    0.0000 O   0  0  0  0  0  0  0  0  0  0  0  0
   15.1797  -11.2674    0.0000 C   0  0  0  0  0  0  0  0  0  0  0  0
   15.8950  -10.8559    0.0000 C   0  0  0  0  0  0  0  0  0  0  0  0
   15.8979  -10.0291    0.0000 C   0  0  0  0  0  0  0  0  0  0  0  0
   16.6124   -9.6166    0.0000 O   0  0  0  0  0  0  0  0  0  0  0  0
   15.1774  -12.0924    0.0000 O   0  0  0  0  0  0  0  0  0  0  0  0
   16.6083  -11.2702    0.0000 N   0  0  0  0  0  0  0  0  0  0  0  0
   16.6064  -12.0951    0.0000 C   0  0  0  0  0  0  0  0  0  0  0  0
   15.8908  -12.5059    0.0000 O   0  0  0  0  0  0  0  0  0  0  0  0
   17.3197  -12.5094    0.0000 C   0  0  0  0  0  0  0  0  0  0  0  0
   17.3147  -13.3336    0.0000 C   0  0  0  0  0  0  0  0  0  0  0  0
   18.0274  -13.7477    0.0000 C   0  0  0  0  0  0  0  0  0  0  0  0
   18.7438  -13.3370    0.0000 C   0  0  0  0  0  0  0  0  0  0  0  0
   18.7432  -12.5077    0.0000 C   0  0  0  0  0  0  0  0  0  0  0  0
   18.0300  -12.0973    0.0000 C   0  0  0  0  0  0  0  0  0  0  0  0
   19.4578  -13.7503    0.0000 O   0  0  0  0  0  0  0  0  0  0  0  0
   14.5437   -6.2825    0.0000 C   0  0  0  0  0  0  0  0  0  0  0  0
   13.7054   -5.4783    0.0000 C   0  0  0  0  0  0  0  0  0  0  0  0
   12.9752   -5.0751    0.0000 O   0  0  0  0  0  0  0  0  0  0  0  0
   13.6820   -4.6495    0.0000 C   0  0  0  0  0  0  0  0  0  0  0  0
   11.5623   -5.9251    0.0000 O   0  0  0  0  0  0  0  0  0  0  0  0
   11.5482   -5.1002    0.0000 C   0  0  0  0  0  0  0  0  0  0  0  0
   10.8273   -4.6996    0.0000 C   0  0  0  0  0  0  0  0  0  0  0  0
   12.2556   -4.6757    0.0000 O   0  0  0  0  0  0  0  0  0  0  0  0
   11.5892   -7.5788    0.0000 O   0  0  0  0  0  0  0  0  0  0  0  0
   10.5915   -3.9060    0.0000 C   0  0  0  0  0  0  0  0  0  0  0  0
    9.7669   -3.8829    0.0000 C   0  0  0  0  0  0  0  0  0  0  0  0
    9.4900   -4.6602    0.0000 C   0  0  0  0  0  0  0  0  0  0  0  0
   10.1437   -5.1635    0.0000 N   0  0  0  0  0  0  0  0  0  0  0  0
    8.7721   -5.0644    0.0000 C   0  0  0  0  0  0  0  0  0  0  0  0
   19.4572  -12.0946    0.0000 O   0  0  0  0  0  0  0  0  0  0  0  0
   20.1721  -12.5063    0.0000 C   0  0  0  0  0  0  0  0  0  0  0  0
   13.0403  -10.0272    0.0000 C   0  0  0  0  0  0  0  0  0  0  0  0
 21 22  2  0  0  0  0
 11 10  1  0  0  0  0
 21 23  1  0  0  0  0
 11 12  2  0  0  0  0
 23 24  2  0  0  0  0
  3  4  1  0  0  0  0
 24 25  1  0  0  0  0
 12 13  1  0  0  0  0
 25 26  2  0  0  0  0
  4  5  1  0  0  0  0
 26 27  1  0  0  0  0
  5  6  1  0  0  0  0
 27 28  2  0  0  0  0
 28 23  1  0  0  0  0
 26 29  1  0  0  0  0
  5  7  1  1  0  0  0
  1 30  1  0  0  0  0
  2  1  1  0  0  0  0
  1 31  1  0  0  0  0
  7  8  1  0  0  0  0
  2 32  1  1  0  0  0
 12 17  1  0  0  0  0
 32 33  1  0  0  0  0
 13 14  1  0  0  0  0
  3 34  1  6  0  0  0
 14 15  1  0  0  0  0
 34 35  1  0  0  0  0
 15 16  1  0  0  0  0
 35 36  1  0  0  0  0
 16 17  2  0  0  0  0
 35 37  2  0  0  0  0
  8  9  1  0  0  0  0
  4 38  1  6  0  0  0
 36 39  2  0  0  0  0
 17 18  1  0  0  0  0
  1  6  1  0  0  0  0
 15 19  2  0  0  0  0
  3  2  1  0  0  0  0
 39 40  1  0  0  0  0
 40 41  2  0  0  0  0
 41 42  1  0  0  0  0
 42 36  1  0  0  0  0
 16 20  1  0  0  0  0
 41 43  1  0  0  0  0
  8 10  2  0  0  0  0
 27 44  1  0  0  0  0
 20 21  1  0  0  0  0
 44 45  1  0  0  0  0
  9 13  2  0  0  0  0
  9 46  1  0  0  0  0
M  END
> <From> 
www.bindingDB.org

> <BindingDB Reactant_set_id>
50607684

> <Ligand InChI>
InChI=1S/C32H34N2O12/c1-14-7-10-18(33-14)29(39)45-26-24(37)31(46-32(3,4)27(26)42-6)43-20-12-9-17-23(36)22(30(40)44-25(17)15(20)2)34-28(38)16-8-11-19(35)21(13-16)41-5/h7-13,24,26-27,31,33,35-37H,1-6H3,(H,34,38)/t24-,26+,27-,31-/m1/s1

> <Ligand InChI Key>
XIWDWPLKRGZPJE-PPOHMGSZSA-N

> <BindingDB MonomerID>
50330313

> <BindingDB Ligand Name>
(3R,4S,5R,6R)-5-hydroxy-6-(4-hydroxy-3-(4-hydroxy-3-methoxybenzamido)-8-methyl-2-oxo-2H-chromen-7-yloxy)-3-methoxy-2,2-dimethyltetrahydro-2H-pyran-4-yl 5-methyl-1H-pyrrole-2-carboxylate::CHEMBL1275845

> <Target Name Assigned by Curator or DataSource>
DNA Gyrase Subunit B

> <Target Source Organism According to Curator or DataSource>
Escherichia coli

> <Ki (nM)>


> <IC50 (nM)>
 86

> <Kd (nM)>


> <EC50 (nM)>


> <kon (M-1-s-1)>


> <koff (s-1)>


> <pH>


> <Temp C>


> <Curation/DataSource>
ChEMBL

> <Article DOI>
10.1128/AAC.01235-07

> <PMID>
18347114

> <PubChem AID>


> <Patent Number>


> <Authors>
Anderle, C; Stieger, M; Burrell, M; Reinelt, S; Maxwell, A; Page, M; Heide, L

> <Institution>
Universit&#228;t T&#252;bingen

> <Link to Ligand in BindingDB>
http://www.bindingdb.org/bind/chemsearch/marvin/MolStructure.jsp?monomerid=50330313

> <Link to Ligand-Target Pair in BindingDB>
http://www.bindingdb.org/jsp/dbsearch/PrimarySearch_ki.jsp?energyterm=kJ/mole&tag=pol&polymerid=2630&target=DNA+Gyrase+Subunit+B&column=ki&startPg=0&Increment=50&submit=Search

> <Link to Ligand-Target Pair in BindingDB>
http://www.bindingdb.org/jsp/dbsearch/PrimarySearch_ki.jsp?energyterm=kJ/mole&tag=r21&monomerid=50330313&enzyme=DNA+Gyrase+Subunit+B&column=ki&startPg=0&Increment=50&submit=Search

> <Ligand HET ID in PDB>


> <PDB ID(s) for Ligand-Target Complex>


> <PubChem CID>
54729436

> <PubChem SID>
123109428

> <ChEBI ID of Ligand>


> <ChEMBL ID of Ligand>
CHEMBL1275845

> <DrugBank ID of Ligand>


> <IUPHAR_GRAC ID of Ligand>


> <KEGG ID of Ligand>


> <ZINC ID of Ligand>
ZINC72138072

> <Number of Protein Chains in Target (>1 implies a multichain complex)>
1

> <BindingDB Target Chain Sequence>
MSNSYDSSSIKVLKGLDAVRKRPGMYIGDTDDGTGLHHMVFEVVDNAIDEALAGHCKEII
VTIHADNSVSVQDDGRGIPTGIHPEEGVSAAEVIMTVLHAGGKFDDNSYKVSGGLHGVGV
SVVNALSQKLELVIQREGKIHRQIYEHGVPQAPLAVTGETEKTGTMVRFWPSLETFTNVT
EFEYEILAKRLRELSFLNSGVSIRLRDKRDGKEDHFHYEGGIKAFVEYLNKNKTPIHPNI
FYFSTEKDGIGVEVALQWNDGFQENIYCFTNNIPQRDGGTHLAGFRAAMTRTLNAYMDKE
GYSKKAKVSATGDDAREGLIAVVSVKVPDPKFSSQTKDKLVSSEVKSAVEQQMNELLAEY
LLENPTDAKIVVGKIIDAARAREAARRAREMTRRKGALDLAGLPGKLADCQERDPALSEL
YLVEGDSAGGSAKQGRNRKNQAILPLKGKILNVEKARFDKMLSSQEVATLITALGCGIGR
DEYNPDKLRYHSIIIMTDADVDGSHIRTLLLTFFYRQMPEIVERGHVYIAQPPLYKVKKG
KQEQYIKDDEAMDQYQISIALDGATLHTNASAPALAGEALEKLVSEYNATQKMINRMERR
YPKAMLKELIYQPTLTEADLSDEQTVTRWVNALVSELNDKEQHGSQWKFDVHTNAEQNLF
EPIVRVRTHGVDTDYPLDHEFITGGEYRRICTLGEKLRGLLEEDAFIERGERRQPVASFE
QALDWLVKESRRGLSIQRYKGLGEMNPEQLWETTMDPESRRMLRVTVKDAIAADQLFTTL
MGDAVEPRRAFIEENALKAANIDI

> <PDB ID(s) of Target Chain>
1KZN,3G7E,3NUH,4DUH,4HYP,4KFG,4PRV,4PRX,4PU9,4WUB,4WUC,4WUD,4XTJ,4ZVI,5L3J,5MMN,5MMO,5MMP,5Z4H,5Z4O,5Z9B,5Z9E,5Z9F,5Z9L,5Z9M,5Z9N,5Z9Q,6ENG,6F86,6F8J,6F94,6F96

> <UniProt (SwissProt) Recommended Name of Target Chain>
DNA gyrase subunit B

> <UniProt (SwissProt) Entry Name of Target Chain>
GYRB_ECOLI

> <UniProt (SwissProt) Primary ID of Target Chain>
P0AES6

> <UniProt (SwissProt) Secondary ID(s) of Target Chain>
O08438,P06982,Q2M811

> <UniProt (SwissProt) Alternative ID(s) of Target Chain>


> <UniProt (TrEMBL) Submitted Name of Target Chain>


> <UniProt (TrEMBL) Entry Name of Target Chain>


> <UniProt (TrEMBL) Primary ID of Target Chain>


> <UniProt (TrEMBL) Secondary ID(s) of Target Chain>


> <UniProt (TrEMBL) Alternative ID(s) of Target Chain>


$$$$

  SciTegic12211718412D

 25 27  0  0  0  0            999 V2000
    9.8752   -8.7930    0.0000 O   0  0
    9.4666   -8.0839    0.0000 C   0  0
    8.6494   -8.0839    0.0000 C   0  0
    8.1693   -7.4248    0.0000 C   0  0
    7.3920   -7.6753    0.0000 C   0  0
    6.7288   -7.1952    0.0000 Cl  0  0
    7.3920   -8.4925    0.0000 C   0  0
    6.7288   -8.9726    0.0000 Cl  0  0
    8.1693   -8.7430    0.0000 N   0  0
    9.8752   -7.3748    0.0000 N   0  0
   10.6924   -7.3748    0.0000 C   0  0
   11.1725   -8.0381    0.0000 N   0  0
   11.9498   -7.7834    0.0000 C   0  0
   12.6547   -8.1920    0.0000 C   0  0
   13.3638   -7.7834    0.0000 C   0  0
   13.3638   -6.9662    0.0000 C   0  0
   14.0729   -6.5576    0.0000 N   0  0
   14.7820   -6.9662    0.0000 C   0  0
   14.7820   -7.7834    0.0000 C   0  0
   14.0729   -8.1920    0.0000 O   0  0
   15.4869   -8.1920    0.0000 O   0  0
   15.4869   -6.5576    0.0000 O   0  0
   12.6547   -6.5576    0.0000 C   0  0
   11.9498   -6.9662    0.0000 C   0  0
   11.1725   -6.7157    0.0000 S   0  0
  1  2  2  0
  2  3  1  0
  3  4  2  0
  4  5  1  0
  5  6  1  0
  5  7  2  0
  7  8  1  0
  7  9  1  0
  3  9  1  0
  2 10  1  0
 10 11  1  0
 11 12  2  0
 12 13  1  0
 13 14  2  0
 14 15  1  0
 15 16  2  0
 16 17  1  0
 17 18  1  0
 18 19  1  0
 19 20  1  0
 19 21  2  0
 18 22  2  0
 16 23  1  0
 23 24  2  0
 13 24  1  0
 24 25  1  0
 11 25  1  0
M  END
> <From> 
www.bindingDB.org

> <BindingDB Reactant_set_id>
50524105

> <Ligand InChI>
InChI=1S/C14H8Cl2N4O4S/c15-6-4-8(18-10(6)16)11(21)20-14-19-7-2-1-5(3-9(7)25-14)17-12(22)13(23)24/h1-4,18H,(H,17,22)(H,23,24)(H,19,20,21)

> <Ligand InChI Key>
QJHQNFJZFZLWJA-UHFFFAOYSA-N

> <BindingDB MonomerID>
50198235

> <BindingDB Ligand Name>
CHEMBL3931016

> <Target Name Assigned by Curator or DataSource>
DNA Gyrase Subunit B

> <Target Source Organism According to Curator or DataSource>
Escherichia coli

> <Ki (nM)>


> <IC50 (nM)>
 87

> <Kd (nM)>


> <EC50 (nM)>


> <kon (M-1-s-1)>


> <koff (s-1)>


> <pH>


> <Temp C>


> <Curation/DataSource>
ChEMBL

> <Article DOI>
10.1021/acs.jmedchem.6b00864

> <PMID>
27541007

> <PubChem AID>


> <Patent Number>


> <Authors>
Gjorgjieva, M; Tomaic, T; Barancokova, M; Katsamakas, S; Ila, J; Tammela, P; Peterlin Maic, L; Kikelj, D

> <Institution>
University of Ljubljana

> <Link to Ligand in BindingDB>
http://www.bindingdb.org/bind/chemsearch/marvin/MolStructure.jsp?monomerid=50198235

> <Link to Ligand-Target Pair in BindingDB>
http://www.bindingdb.org/jsp/dbsearch/PrimarySearch_ki.jsp?energyterm=kJ/mole&tag=pol&polymerid=2630&target=DNA+Gyrase+Subunit+B&column=ki&startPg=0&Increment=50&submit=Search

> <Link to Ligand-Target Pair in BindingDB>
http://www.bindingdb.org/jsp/dbsearch/PrimarySearch_ki.jsp?energyterm=kJ/mole&tag=r21&monomerid=50198235&enzyme=DNA+Gyrase+Subunit+B&column=ki&startPg=0&Increment=50&submit=Search

> <Ligand HET ID in PDB>


> <PDB ID(s) for Ligand-Target Complex>


> <PubChem CID>
134138146

> <PubChem SID>
375978187

> <ChEBI ID of Ligand>


> <ChEMBL ID of Ligand>


> <DrugBank ID of Ligand>


> <IUPHAR_GRAC ID of Ligand>


> <KEGG ID of Ligand>


> <ZINC ID of Ligand>


> <Number of Protein Chains in Target (>1 implies a multichain complex)>
1

> <BindingDB Target Chain Sequence>
MSNSYDSSSIKVLKGLDAVRKRPGMYIGDTDDGTGLHHMVFEVVDNAIDEALAGHCKEII
VTIHADNSVSVQDDGRGIPTGIHPEEGVSAAEVIMTVLHAGGKFDDNSYKVSGGLHGVGV
SVVNALSQKLELVIQREGKIHRQIYEHGVPQAPLAVTGETEKTGTMVRFWPSLETFTNVT
EFEYEILAKRLRELSFLNSGVSIRLRDKRDGKEDHFHYEGGIKAFVEYLNKNKTPIHPNI
FYFSTEKDGIGVEVALQWNDGFQENIYCFTNNIPQRDGGTHLAGFRAAMTRTLNAYMDKE
GYSKKAKVSATGDDAREGLIAVVSVKVPDPKFSSQTKDKLVSSEVKSAVEQQMNELLAEY
LLENPTDAKIVVGKIIDAARAREAARRAREMTRRKGALDLAGLPGKLADCQERDPALSEL
YLVEGDSAGGSAKQGRNRKNQAILPLKGKILNVEKARFDKMLSSQEVATLITALGCGIGR
DEYNPDKLRYHSIIIMTDADVDGSHIRTLLLTFFYRQMPEIVERGHVYIAQPPLYKVKKG
KQEQYIKDDEAMDQYQISIALDGATLHTNASAPALAGEALEKLVSEYNATQKMINRMERR
YPKAMLKELIYQPTLTEADLSDEQTVTRWVNALVSELNDKEQHGSQWKFDVHTNAEQNLF
EPIVRVRTHGVDTDYPLDHEFITGGEYRRICTLGEKLRGLLEEDAFIERGERRQPVASFE
QALDWLVKESRRGLSIQRYKGLGEMNPEQLWETTMDPESRRMLRVTVKDAIAADQLFTTL
MGDAVEPRRAFIEENALKAANIDI

> <PDB ID(s) of Target Chain>
1KZN,3G7E,3NUH,4DUH,4HYP,4KFG,4PRV,4PRX,4PU9,4WUB,4WUC,4WUD,4XTJ,4ZVI,5L3J,5MMN,5MMO,5MMP,5Z4H,5Z4O,5Z9B,5Z9E,5Z9F,5Z9L,5Z9M,5Z9N,5Z9Q,6ENG,6F86,6F8J,6F94,6F96

> <UniProt (SwissProt) Recommended Name of Target Chain>
DNA gyrase subunit B

> <UniProt (SwissProt) Entry Name of Target Chain>
GYRB_ECOLI

> <UniProt (SwissProt) Primary ID of Target Chain>
P0AES6

> <UniProt (SwissProt) Secondary ID(s) of Target Chain>
O08438,P06982,Q2M811

> <UniProt (SwissProt) Alternative ID(s) of Target Chain>


> <UniProt (TrEMBL) Submitted Name of Target Chain>


> <UniProt (TrEMBL) Entry Name of Target Chain>


> <UniProt (TrEMBL) Primary ID of Target Chain>


> <UniProt (TrEMBL) Secondary ID(s) of Target Chain>


> <UniProt (TrEMBL) Alternative ID(s) of Target Chain>


$$$$

  SciTegic09291413392D

 22 24  0  0  0  0            999 V2000
   10.5313   -3.0335    0.0000 C   0  0
   10.5301   -3.8530    0.0000 C   0  0
   11.2382   -4.2620    0.0000 N   0  0
   11.2364   -2.6246    0.0000 C   0  0
   11.9450   -3.0299    0.0000 C   0  0
   11.9498   -3.8530    0.0000 C   0  0
   12.7342   -4.1029    0.0000 S   0  0
   13.2142   -3.4340    0.0000 C   0  0
   12.7264   -2.7710    0.0000 N   0  0
    9.8255   -2.6252    0.0000 C   0  0
    9.8267   -1.8069    0.0000 C   0  0
    9.1197   -1.3986    0.0000 C   0  0
    8.4111   -1.8074    0.0000 C   0  0
    8.4139   -2.6288    0.0000 N   0  0
    9.1215   -3.0335    0.0000 C   0  0
   14.0314   -3.4292    0.0000 N   0  0
   14.4358   -2.7191    0.0000 C   0  0
   15.2530   -2.7143    0.0000 N   0  0
   14.0230   -2.0138    0.0000 O   0  0
   15.6574   -2.0042    0.0000 C   0  0
   16.4746   -1.9993    0.0000 C   0  0
   16.8790   -1.2892    0.0000 C   0  0
  1  2  2  0
  2  3  1  0
  3  6  2  0
  5  4  2  0
  4  1  1  0
  5  6  1  0
  6  7  1  0
  7  8  1  0
  8  9  2  0
  9  5  1  0
 10 11  2  0
 11 12  1  0
 12 13  2  0
 13 14  1  0
 14 15  2  0
 15 10  1  0
  1 10  1  0
  8 16  1  0
 16 17  1  0
 17 18  1  0
 17 19  2  0
 18 20  1  0
 20 21  1  0
 21 22  2  0
M  END
> <From> 
www.bindingDB.org

> <BindingDB Reactant_set_id>
50089895

> <Ligand InChI>
InChI=1S/C15H13N5OS/c1-2-5-17-14(21)20-15-19-12-7-11(9-18-13(12)22-15)10-4-3-6-16-8-10/h2-4,6-9H,1,5H2,(H2,17,19,20,21)

> <Ligand InChI Key>
SKGUGHAPGPISKP-UHFFFAOYSA-N

> <BindingDB MonomerID>
50010342

> <BindingDB Ligand Name>
CHEMBL3263586

> <Target Name Assigned by Curator or DataSource>
DNA gyrase subunit B

> <Target Source Organism According to Curator or DataSource>


> <Ki (nM)>


> <IC50 (nM)>
 88

> <Kd (nM)>


> <EC50 (nM)>


> <kon (M-1-s-1)>


> <koff (s-1)>


> <pH>


> <Temp C>


> <Curation/DataSource>
ChEMBL

> <Article DOI>
10.1021/jm401268f

> <PMID>
24088190

> <PubChem AID>


> <Patent Number>


> <Authors>
Ahuja, V; Ahuja, V; Basavarajappa, H; Basavarajappa, H; P, SH; P, SH; Boriack-Sjodin, PA; Boriack-Sjodin, PA; McKinney, D; McKinney, D; Ganguly, S; Ganguly, S; Kranthi, U; Kranthi, U; Gaonkar, S; Gaonkar, S; Jena, Lk; Jena, Lk; Ghorpade, SR; Ghorpade, SR; Ghosh, A; Ghosh, A; Barde, S; Barde, S; Kale, MG; Kale, MG; Koushik, K; Koushik, K; Kumar, CN; Kumar, CN; Manjunatha, MR; Manjunatha, MR; Ogg, D; Ogg, D; Panduga, V; Panduga, V; Ramya, VK; Ramya, VK; Reddy, J; Reddy, J; Kumar, KN; Kumar, KN; Giridhar, J; Giridhar, J; Rudrapatna, S; Rudrapatna, S; Sharma, S; Sharma, S; Tucker, JA; Tucker, JA; Vachaspati, P; Vachaspati, P; Waterson, D; Waterson, D; de Sousa, SM; de Sousa, SM

> <Institution>
AstraZeneca India Pvt. Ltd.

> <Link to Ligand in BindingDB>
http://www.bindingdb.org/bind/chemsearch/marvin/MolStructure.jsp?monomerid=50010342

> <Link to Ligand-Target Pair in BindingDB>
http://www.bindingdb.org/jsp/dbsearch/PrimarySearch_ki.jsp?energyterm=kJ/mole&tag=pol&polymerid=50006452&target=DNA+gyrase+subunit+B&column=ki&startPg=0&Increment=50&submit=Search

> <Link to Ligand-Target Pair in BindingDB>
http://www.bindingdb.org/jsp/dbsearch/PrimarySearch_ki.jsp?energyterm=kJ/mole&tag=r21&monomerid=50010342&enzyme=DNA+gyrase+subunit+B&column=ki&startPg=0&Increment=50&submit=Search

> <Ligand HET ID in PDB>


> <PDB ID(s) for Ligand-Target Complex>


> <PubChem CID>
44553176

> <PubChem SID>
103923156

> <ChEBI ID of Ligand>


> <ChEMBL ID of Ligand>
CHEMBL3263586

> <DrugBank ID of Ligand>


> <IUPHAR_GRAC ID of Ligand>


> <KEGG ID of Ligand>


> <ZINC ID of Ligand>
ZINC26960335

> <Number of Protein Chains in Target (>1 implies a multichain complex)>
1

> <BindingDB Target Chain Sequence>
MAAQKNNAPKEYGADSITILEGLEAVRKRPGMYIGSTGERGLHHLIWEVVDNAVDEAMAGFATRVDVKIHADGSVEVRDDGRGIPVEMHATGMPTIDVVMTQLHAGGKFDGETYAVSGGLHGVGVSVVNALSTRLEATVLRDGYEWFQYYDRSVPGKLKQGGETKETGTTIRFWADPEIFETTDYNFETVARRLQEMAFLNKGLTIELTDERVTAEEVVDDVVKDTAEAPKTADEKAAEATGPSKVKHRVFHYPGGLVDYVKHINRTKTPIQQSIIDFDGKGPGHEVEIAMQWNAGYSESVHTFANTINTHEGGTHEEGFRAALTSVVNRYAKDKKLLKDKDPNLTGDDIREGLAAVISVKVAEPQFEGQTKTKLGNTEVKSFVQKICNEQLQHWFEANPAEAKTVVNKAVSSAQARIAARKARELVRRKSATDIGGLPGKLADCRSTDPSKSELYVVEGDSAGGSAKSGRDSMFQAILPLRGKIINVEKARIDRVLKNTEVQSIITALGTGIHDEFDISKLRYHKIVLMADADVDGQHISTLLLTLLFRFMKPLVENGHIFLAQPPLYKLKWQRSEPEFAYSDRERDGLLEAGRAAGKKINVDDGIQRYKGLGEMDAKELWETTMDPSVRVLRQVTLDDAAAADELFSILMGEDVEARRSFITRNAKDVRFLDV

> <PDB ID(s) of Target Chain>
4BAE

> <UniProt (SwissProt) Recommended Name of Target Chain>
DNA gyrase subunit B

> <UniProt (SwissProt) Entry Name of Target Chain>
GYRB_MYCSM

> <UniProt (SwissProt) Primary ID of Target Chain>
P0C559

> <UniProt (SwissProt) Secondary ID(s) of Target Chain>
P48355,Q59555

> <UniProt (SwissProt) Alternative ID(s) of Target Chain>


> <UniProt (TrEMBL) Submitted Name of Target Chain>


> <UniProt (TrEMBL) Entry Name of Target Chain>


> <UniProt (TrEMBL) Primary ID of Target Chain>


> <UniProt (TrEMBL) Secondary ID(s) of Target Chain>


> <UniProt (TrEMBL) Alternative ID(s) of Target Chain>


$$$$

  SciTegic09291413392D

 28 31  0  0  0  0            999 V2000
   20.6462  -22.0433    0.0000 C   0  0
   20.6451  -22.8706    0.0000 C   0  0
   21.3598  -23.2834    0.0000 N   0  0
   21.3580  -21.6306    0.0000 C   0  0
   22.0734  -22.0397    0.0000 C   0  0
   22.0782  -22.8706    0.0000 C   0  0
   22.8700  -23.1228    0.0000 S   0  0
   23.3546  -22.4477    0.0000 C   0  0
   22.8621  -21.7783    0.0000 N   0  0
   19.9339  -21.6312    0.0000 C   0  0
   19.9350  -20.8052    0.0000 C   0  0
   19.2214  -20.3930    0.0000 C   0  0
   18.5061  -20.8056    0.0000 C   0  0
   18.5089  -21.6349    0.0000 N   0  0
   24.1794  -22.4428    0.0000 N   0  0
   24.5877  -21.7259    0.0000 C   0  0
   25.4125  -21.7211    0.0000 N   0  0
   24.1710  -21.0141    0.0000 O   0  0
   25.8207  -21.0043    0.0000 C   0  0
   26.6456  -20.9994    0.0000 C   0  0
   19.9304  -23.2825    0.0000 N   0  0
   19.2164  -22.8694    0.0000 C   0  0
   19.2170  -22.0446    0.0000 C   0  0
   18.5016  -23.2814    0.0000 C   0  0
   17.7518  -22.9476    0.0000 C   0  0
   17.1993  -23.5601    0.0000 C   0  0
   17.6112  -24.2749    0.0000 O   0  0
   18.4182  -24.1039    0.0000 C   0  0
  1  2  2  0
  2  3  1  0
  3  6  2  0
  5  4  2  0
  4  1  1  0
  5  6  1  0
  6  7  1  0
  7  8  1  0
  8  9  2  0
  9  5  1  0
 10 11  2  0
 11 12  1  0
 12 13  2  0
 13 14  1  0
 14 23  2  0
 23 10  1  0
  1 10  1  0
  8 15  1  0
 15 16  1  0
 16 17  1  0
 16 18  2  0
 17 19  1  0
 19 20  1  0
  2 21  1  0
 21 22  1  0
 22 24  1  0
 24 25  1  0
 25 26  1  0
 26 27  1  0
 27 28  1  0
 28 24  1  0
M  END
> <From> 
www.bindingDB.org

> <BindingDB Reactant_set_id>
50089916

> <Ligand InChI>
InChI=1S/C19H22N6O2S/c1-2-21-18(26)25-19-23-15-8-14(13-4-3-6-20-10-13)16(24-17(15)28-19)22-9-12-5-7-27-11-12/h3-4,6,8,10,12H,2,5,7,9,11H2,1H3,(H,22,24)(H2,21,23,25,26)

> <Ligand InChI Key>
GEPFIWBFZDKYLW-UHFFFAOYSA-N

> <BindingDB MonomerID>
50010356

> <BindingDB Ligand Name>
CHEMBL3263600

> <Target Name Assigned by Curator or DataSource>
DNA gyrase subunit B

> <Target Source Organism According to Curator or DataSource>


> <Ki (nM)>


> <IC50 (nM)>
 90

> <Kd (nM)>


> <EC50 (nM)>


> <kon (M-1-s-1)>


> <koff (s-1)>


> <pH>


> <Temp C>


> <Curation/DataSource>
ChEMBL

> <Article DOI>
10.1021/jm401268f

> <PMID>
24088190

> <PubChem AID>


> <Patent Number>


> <Authors>
Ahuja, V; Ahuja, V; Basavarajappa, H; Basavarajappa, H; P, SH; P, SH; Boriack-Sjodin, PA; Boriack-Sjodin, PA; McKinney, D; McKinney, D; Ganguly, S; Ganguly, S; Kranthi, U; Kranthi, U; Gaonkar, S; Gaonkar, S; Jena, Lk; Jena, Lk; Ghorpade, SR; Ghorpade, SR; Ghosh, A; Ghosh, A; Barde, S; Barde, S; Kale, MG; Kale, MG; Koushik, K; Koushik, K; Kumar, CN; Kumar, CN; Manjunatha, MR; Manjunatha, MR; Ogg, D; Ogg, D; Panduga, V; Panduga, V; Ramya, VK; Ramya, VK; Reddy, J; Reddy, J; Kumar, KN; Kumar, KN; Giridhar, J; Giridhar, J; Rudrapatna, S; Rudrapatna, S; Sharma, S; Sharma, S; Tucker, JA; Tucker, JA; Vachaspati, P; Vachaspati, P; Waterson, D; Waterson, D; de Sousa, SM; de Sousa, SM

> <Institution>
AstraZeneca India Pvt. Ltd.

> <Link to Ligand in BindingDB>
http://www.bindingdb.org/bind/chemsearch/marvin/MolStructure.jsp?monomerid=50010356

> <Link to Ligand-Target Pair in BindingDB>
http://www.bindingdb.org/jsp/dbsearch/PrimarySearch_ki.jsp?energyterm=kJ/mole&tag=pol&polymerid=50006452&target=DNA+gyrase+subunit+B&column=ki&startPg=0&Increment=50&submit=Search

> <Link to Ligand-Target Pair in BindingDB>
http://www.bindingdb.org/jsp/dbsearch/PrimarySearch_ki.jsp?energyterm=kJ/mole&tag=r21&monomerid=50010356&enzyme=DNA+gyrase+subunit+B&column=ki&startPg=0&Increment=50&submit=Search

> <Ligand HET ID in PDB>


> <PDB ID(s) for Ligand-Target Complex>


> <PubChem CID>
72713301

> <PubChem SID>
103923170

> <ChEBI ID of Ligand>


> <ChEMBL ID of Ligand>
CHEMBL3263600

> <DrugBank ID of Ligand>


> <IUPHAR_GRAC ID of Ligand>


> <KEGG ID of Ligand>


> <ZINC ID of Ligand>
ZINC26975235

> <Number of Protein Chains in Target (>1 implies a multichain complex)>
1

> <BindingDB Target Chain Sequence>
MAAQKNNAPKEYGADSITILEGLEAVRKRPGMYIGSTGERGLHHLIWEVVDNAVDEAMAGFATRVDVKIHADGSVEVRDDGRGIPVEMHATGMPTIDVVMTQLHAGGKFDGETYAVSGGLHGVGVSVVNALSTRLEATVLRDGYEWFQYYDRSVPGKLKQGGETKETGTTIRFWADPEIFETTDYNFETVARRLQEMAFLNKGLTIELTDERVTAEEVVDDVVKDTAEAPKTADEKAAEATGPSKVKHRVFHYPGGLVDYVKHINRTKTPIQQSIIDFDGKGPGHEVEIAMQWNAGYSESVHTFANTINTHEGGTHEEGFRAALTSVVNRYAKDKKLLKDKDPNLTGDDIREGLAAVISVKVAEPQFEGQTKTKLGNTEVKSFVQKICNEQLQHWFEANPAEAKTVVNKAVSSAQARIAARKARELVRRKSATDIGGLPGKLADCRSTDPSKSELYVVEGDSAGGSAKSGRDSMFQAILPLRGKIINVEKARIDRVLKNTEVQSIITALGTGIHDEFDISKLRYHKIVLMADADVDGQHISTLLLTLLFRFMKPLVENGHIFLAQPPLYKLKWQRSEPEFAYSDRERDGLLEAGRAAGKKINVDDGIQRYKGLGEMDAKELWETTMDPSVRVLRQVTLDDAAAADELFSILMGEDVEARRSFITRNAKDVRFLDV

> <PDB ID(s) of Target Chain>
4BAE

> <UniProt (SwissProt) Recommended Name of Target Chain>
DNA gyrase subunit B

> <UniProt (SwissProt) Entry Name of Target Chain>
GYRB_MYCSM

> <UniProt (SwissProt) Primary ID of Target Chain>
P0C559

> <UniProt (SwissProt) Secondary ID(s) of Target Chain>
P48355,Q59555

> <UniProt (SwissProt) Alternative ID(s) of Target Chain>


> <UniProt (TrEMBL) Submitted Name of Target Chain>


> <UniProt (TrEMBL) Entry Name of Target Chain>


> <UniProt (TrEMBL) Primary ID of Target Chain>


> <UniProt (TrEMBL) Secondary ID(s) of Target Chain>


> <UniProt (TrEMBL) Alternative ID(s) of Target Chain>


$$$$

  Mrv0541 11231413392D          

 45 49  0  0  0  0            999 V2000
   -1.0918  -21.1372    0.0000 C   0  0  0  0  0  0  0  0  0  0  0  0
   -1.8177  -20.7357    0.0000 C   0  0  1  0  0  0  0  0  0  0  0  0
   -2.5245  -21.1612    0.0000 C   0  0  2  0  0  0  0  0  0  0  0  0
   -2.5115  -21.9900    0.0000 C   0  0  2  0  0  0  0  0  0  0  0  0
   -1.7857  -22.3916    0.0000 C   0  0  1  0  0  0  0  0  0  0  0  0
   -1.0727  -21.9642    0.0000 O   0  0  0  0  0  0  0  0  0  0  0  0
   -1.7714  -23.2164    0.0000 O   0  0  0  0  0  0  0  0  0  0  0  0
   -1.0517  -23.6277    0.0000 C   0  0  0  0  0  0  0  0  0  0  0  0
   -1.0523  -24.4521    0.0000 C   0  0  0  0  0  0  0  0  0  0  0  0
   -0.3368  -23.2135    0.0000 C   0  0  0  0  0  0  0  0  0  0  0  0
    0.3776  -23.6311    0.0000 C   0  0  0  0  0  0  0  0  0  0  0  0
    0.3759  -24.4558    0.0000 C   0  0  0  0  0  0  0  0  0  0  0  0
   -0.3394  -24.8674    0.0000 C   0  0  0  0  0  0  0  0  0  0  0  0
   -0.3407  -25.6879    0.0000 O   0  0  0  0  0  0  0  0  0  0  0  0
    0.3717  -26.1033    0.0000 C   0  0  0  0  0  0  0  0  0  0  0  0
    1.0870  -25.6918    0.0000 C   0  0  0  0  0  0  0  0  0  0  0  0
    1.0898  -24.8649    0.0000 C   0  0  0  0  0  0  0  0  0  0  0  0
    1.8044  -24.4525    0.0000 O   0  0  0  0  0  0  0  0  0  0  0  0
    0.3694  -26.9282    0.0000 O   0  0  0  0  0  0  0  0  0  0  0  0
    1.8003  -26.1060    0.0000 N   0  0  0  0  0  0  0  0  0  0  0  0
    1.7983  -26.9310    0.0000 C   0  0  0  0  0  0  0  0  0  0  0  0
    1.0828  -27.3417    0.0000 O   0  0  0  0  0  0  0  0  0  0  0  0
   -0.2643  -21.1183    0.0000 C   0  0  0  0  0  0  0  0  0  0  0  0
   -1.1027  -20.3141    0.0000 C   0  0  0  0  0  0  0  0  0  0  0  0
   -1.8329  -19.9108    0.0000 O   0  0  0  0  0  0  0  0  0  0  0  0
   -1.1260  -19.4853    0.0000 C   0  0  0  0  0  0  0  0  0  0  0  0
   -3.2458  -20.7609    0.0000 O   0  0  0  0  0  0  0  0  0  0  0  0
   -3.2598  -19.9360    0.0000 C   0  0  0  0  0  0  0  0  0  0  0  0
   -3.9808  -19.5354    0.0000 C   0  0  0  0  0  0  0  0  0  0  0  0
   -2.5525  -19.5114    0.0000 O   0  0  0  0  0  0  0  0  0  0  0  0
   -3.2189  -22.4146    0.0000 O   0  0  0  0  0  0  0  0  0  0  0  0
   -4.2166  -18.7418    0.0000 C   0  0  0  0  0  0  0  0  0  0  0  0
   -5.0412  -18.7187    0.0000 C   0  0  0  0  0  0  0  0  0  0  0  0
   -5.3181  -19.4959    0.0000 C   0  0  0  0  0  0  0  0  0  0  0  0
   -4.6644  -19.9993    0.0000 N   0  0  0  0  0  0  0  0  0  0  0  0
   -6.0360  -19.9002    0.0000 C   0  0  0  0  0  0  0  0  0  0  0  0
   -1.7677  -24.8631    0.0000 Cl  0  0  0  0  0  0  0  0  0  0  0  0
    2.5117  -27.3452    0.0000 C   0  0  0  0  0  0  0  0  0  0  0  0
    2.5097  -28.1702    0.0000 C   0  0  0  0  0  0  0  0  0  0  0  0
    3.2230  -28.5846    0.0000 C   0  0  0  0  0  0  0  0  0  0  0  0
    3.2173  -29.4070    0.0000 C   0  0  0  0  0  0  0  0  0  0  0  0
    3.9298  -29.8213    0.0000 C   0  0  0  0  0  0  0  0  0  0  0  0
    4.6462  -29.4105    0.0000 C   0  0  0  0  0  0  0  0  0  0  0  0
    4.6457  -28.5813    0.0000 C   0  0  0  0  0  0  0  0  0  0  0  0
    3.9325  -28.1708    0.0000 C   0  0  0  0  0  0  0  0  0  0  0  0
  9 13  2  0  0  0  0
 21 22  2  0  0  0  0
 11 10  1  0  0  0  0
  1 23  1  0  0  0  0
 11 12  2  0  0  0  0
  1 24  1  0  0  0  0
  3  4  1  0  0  0  0
  2 25  1  1  0  0  0
 12 13  1  0  0  0  0
 25 26  1  0  0  0  0
  4  5  1  0  0  0  0
  3 27  1  6  0  0  0
  5  6  1  0  0  0  0
 27 28  1  0  0  0  0
 28 29  1  0  0  0  0
  5  7  1  1  0  0  0
 28 30  2  0  0  0  0
  2  1  1  0  0  0  0
  4 31  1  6  0  0  0
 29 32  2  0  0  0  0
  7  8  1  0  0  0  0
 12 17  1  0  0  0  0
 13 14  1  0  0  0  0
 14 15  1  0  0  0  0
 32 33  1  0  0  0  0
 33 34  2  0  0  0  0
 34 35  1  0  0  0  0
 35 29  1  0  0  0  0
 15 16  1  0  0  0  0
 34 36  1  0  0  0  0
 16 17  2  0  0  0  0
  9 37  1  0  0  0  0
  8  9  1  0  0  0  0
 21 38  1  0  0  0  0
 17 18  1  0  0  0  0
 38 39  2  0  0  0  0
  1  6  1  0  0  0  0
 39 40  1  0  0  0  0
 15 19  2  0  0  0  0
 40 41  2  0  0  0  0
  3  2  1  0  0  0  0
 41 42  1  0  0  0  0
 16 20  1  0  0  0  0
 42 43  2  0  0  0  0
  8 10  2  0  0  0  0
 43 44  1  0  0  0  0
 20 21  1  0  0  0  0
 44 45  2  0  0  0  0
 45 40  1  0  0  0  0
M  END
> <From> 
www.bindingDB.org

> <BindingDB Reactant_set_id>
50607683

> <Ligand InChI>
InChI=1S/C32H31ClN2O10/c1-16-10-13-19(34-16)29(39)44-27-25(38)31(45-32(2,3)28(27)41-4)42-20-14-12-18-24(37)23(30(40)43-26(18)22(20)33)35-21(36)15-11-17-8-6-5-7-9-17/h5-15,25,27-28,31,34,37-38H,1-4H3,(H,35,36)/b15-11+/t25-,27+,28-,31-/m1/s1

> <Ligand InChI Key>
YRPQLLNDNYAISI-SNVNZYQNSA-N

> <BindingDB MonomerID>
50330312

> <BindingDB Ligand Name>
(3R,4S,5R,6S)-6-(8-chloro-3-cinnamamido-4-hydroxy-2-oxo-2H-chromen-7-yloxy)-5-hydroxy-3-methoxy-2,2-dimethyltetrahydro-2H-pyran-4-yl 5-methyl-1H-pyrrole-2-carboxylate::CHEMBL1275846

> <Target Name Assigned by Curator or DataSource>
DNA Gyrase Subunit B

> <Target Source Organism According to Curator or DataSource>
Escherichia coli

> <Ki (nM)>


> <IC50 (nM)>
 90

> <Kd (nM)>


> <EC50 (nM)>


> <kon (M-1-s-1)>


> <koff (s-1)>


> <pH>


> <Temp C>


> <Curation/DataSource>
ChEMBL

> <Article DOI>
10.1128/AAC.01235-07

> <PMID>
18347114

> <PubChem AID>


> <Patent Number>


> <Authors>
Anderle, C; Stieger, M; Burrell, M; Reinelt, S; Maxwell, A; Page, M; Heide, L

> <Institution>
Universit&#228;t T&#252;bingen

> <Link to Ligand in BindingDB>
http://www.bindingdb.org/bind/chemsearch/marvin/MolStructure.jsp?monomerid=50330312

> <Link to Ligand-Target Pair in BindingDB>
http://www.bindingdb.org/jsp/dbsearch/PrimarySearch_ki.jsp?energyterm=kJ/mole&tag=pol&polymerid=2630&target=DNA+Gyrase+Subunit+B&column=ki&startPg=0&Increment=50&submit=Search

> <Link to Ligand-Target Pair in BindingDB>
http://www.bindingdb.org/jsp/dbsearch/PrimarySearch_ki.jsp?energyterm=kJ/mole&tag=r21&monomerid=50330312&enzyme=DNA+Gyrase+Subunit+B&column=ki&startPg=0&Increment=50&submit=Search

> <Ligand HET ID in PDB>


> <PDB ID(s) for Ligand-Target Complex>


> <PubChem CID>
54730369

> <PubChem SID>
123109427

> <ChEBI ID of Ligand>


> <ChEMBL ID of Ligand>
CHEMBL1275846

> <DrugBank ID of Ligand>


> <IUPHAR_GRAC ID of Ligand>


> <KEGG ID of Ligand>


> <ZINC ID of Ligand>
ZINC72138073

> <Number of Protein Chains in Target (>1 implies a multichain complex)>
1

> <BindingDB Target Chain Sequence>
MSNSYDSSSIKVLKGLDAVRKRPGMYIGDTDDGTGLHHMVFEVVDNAIDEALAGHCKEII
VTIHADNSVSVQDDGRGIPTGIHPEEGVSAAEVIMTVLHAGGKFDDNSYKVSGGLHGVGV
SVVNALSQKLELVIQREGKIHRQIYEHGVPQAPLAVTGETEKTGTMVRFWPSLETFTNVT
EFEYEILAKRLRELSFLNSGVSIRLRDKRDGKEDHFHYEGGIKAFVEYLNKNKTPIHPNI
FYFSTEKDGIGVEVALQWNDGFQENIYCFTNNIPQRDGGTHLAGFRAAMTRTLNAYMDKE
GYSKKAKVSATGDDAREGLIAVVSVKVPDPKFSSQTKDKLVSSEVKSAVEQQMNELLAEY
LLENPTDAKIVVGKIIDAARAREAARRAREMTRRKGALDLAGLPGKLADCQERDPALSEL
YLVEGDSAGGSAKQGRNRKNQAILPLKGKILNVEKARFDKMLSSQEVATLITALGCGIGR
DEYNPDKLRYHSIIIMTDADVDGSHIRTLLLTFFYRQMPEIVERGHVYIAQPPLYKVKKG
KQEQYIKDDEAMDQYQISIALDGATLHTNASAPALAGEALEKLVSEYNATQKMINRMERR
YPKAMLKELIYQPTLTEADLSDEQTVTRWVNALVSELNDKEQHGSQWKFDVHTNAEQNLF
EPIVRVRTHGVDTDYPLDHEFITGGEYRRICTLGEKLRGLLEEDAFIERGERRQPVASFE
QALDWLVKESRRGLSIQRYKGLGEMNPEQLWETTMDPESRRMLRVTVKDAIAADQLFTTL
MGDAVEPRRAFIEENALKAANIDI

> <PDB ID(s) of Target Chain>
1KZN,3G7E,3NUH,4DUH,4HYP,4KFG,4PRV,4PRX,4PU9,4WUB,4WUC,4WUD,4XTJ,4ZVI,5L3J,5MMN,5MMO,5MMP,5Z4H,5Z4O,5Z9B,5Z9E,5Z9F,5Z9L,5Z9M,5Z9N,5Z9Q,6ENG,6F86,6F8J,6F94,6F96

> <UniProt (SwissProt) Recommended Name of Target Chain>
DNA gyrase subunit B

> <UniProt (SwissProt) Entry Name of Target Chain>
GYRB_ECOLI

> <UniProt (SwissProt) Primary ID of Target Chain>
P0AES6

> <UniProt (SwissProt) Secondary ID(s) of Target Chain>
O08438,P06982,Q2M811

> <UniProt (SwissProt) Alternative ID(s) of Target Chain>


> <UniProt (TrEMBL) Submitted Name of Target Chain>


> <UniProt (TrEMBL) Entry Name of Target Chain>


> <UniProt (TrEMBL) Primary ID of Target Chain>


> <UniProt (TrEMBL) Secondary ID(s) of Target Chain>


> <UniProt (TrEMBL) Alternative ID(s) of Target Chain>


$$$$

  Mrv0541 11241408262D          

 27 30  0  0  0  0            999 V2000
   -2.1139  -21.8250    0.0000 C   0  0  0  0  0  0  0  0  0  0  0  0
   -2.1151  -22.6523    0.0000 C   0  0  0  0  0  0  0  0  0  0  0  0
   -1.4003  -23.0652    0.0000 C   0  0  0  0  0  0  0  0  0  0  0  0
   -1.4021  -21.4122    0.0000 C   0  0  0  0  0  0  0  0  0  0  0  0
    0.1046  -21.5673    0.0000 N   0  0  0  0  0  0  0  0  0  0  0  0
   -0.6867  -21.8213    0.0000 C   0  0  0  0  0  0  0  0  0  0  0  0
   -0.6885  -22.6531    0.0000 N   0  0  0  0  0  0  0  0  0  0  0  0
    0.1026  -22.9105    0.0000 C   0  0  0  0  0  0  0  0  0  0  0  0
    0.5907  -22.2369    0.0000 C   0  0  0  0  0  0  0  0  0  0  0  0
   -2.8264  -21.4128    0.0000 C   0  0  0  0  0  0  0  0  0  0  0  0
   -2.8253  -20.5867    0.0000 C   0  0  0  0  0  0  0  0  0  0  0  0
   -3.5390  -20.1744    0.0000 N   0  0  0  0  0  0  0  0  0  0  0  0
   -4.2543  -20.5872    0.0000 C   0  0  0  0  0  0  0  0  0  0  0  0
   -4.2515  -21.4164    0.0000 C   0  0  0  0  0  0  0  0  0  0  0  0
   -3.5372  -21.8249    0.0000 C   0  0  0  0  0  0  0  0  0  0  0  0
   -1.3983  -23.8874    0.0000 C   0  0  0  0  0  0  0  0  0  0  0  0
   -2.1141  -24.2997    0.0000 N   0  0  0  0  0  0  0  0  0  0  0  0
   -2.1140  -25.1240    0.0000 C   0  0  0  0  0  0  0  0  0  0  0  0
   -1.3988  -25.5369    0.0000 C   0  0  0  0  0  0  0  0  0  0  0  0
   -0.6822  -25.1196    0.0000 C   0  0  0  0  0  0  0  0  0  0  0  0
   -0.6858  -24.2967    0.0000 N   0  0  0  0  0  0  0  0  0  0  0  0
    1.4157  -22.2366    0.0000 N   0  0  0  0  0  0  0  0  0  0  0  0
    1.8279  -21.5220    0.0000 C   0  0  0  0  0  0  0  0  0  0  0  0
    1.4151  -20.8077    0.0000 O   0  0  0  0  0  0  0  0  0  0  0  0
    2.6529  -21.5216    0.0000 N   0  0  0  0  0  0  0  0  0  0  0  0
    3.0657  -22.2359    0.0000 C   0  0  0  0  0  0  0  0  0  0  0  0
   -1.3973  -26.3619    0.0000 C   0  0  0  0  0  0  0  0  0  0  0  0
  3  7  1  0  0  0  0
 13 14  2  0  0  0  0
  1  2  1  0  0  0  0
 14 15  1  0  0  0  0
 15 10  2  0  0  0  0
  1 10  1  0  0  0  0
  6  4  1  0  0  0  0
  5  6  2  0  0  0  0
 16 17  2  0  0  0  0
  7  8  1  0  0  0  0
 17 18  1  0  0  0  0
  8  9  2  0  0  0  0
 18 19  2  0  0  0  0
  9  5  1  0  0  0  0
 19 20  1  0  0  0  0
  4  1  2  0  0  0  0
 20 21  2  0  0  0  0
 21 16  1  0  0  0  0
  3 16  1  0  0  0  0
  6  7  1  0  0  0  0
  9 22  1  0  0  0  0
 10 11  1  0  0  0  0
 22 23  1  0  0  0  0
 23 24  2  0  0  0  0
 11 12  2  0  0  0  0
  2  3  2  0  0  0  0
 23 25  1  0  0  0  0
 12 13  1  0  0  0  0
 25 26  1  0  0  0  0
 19 27  1  0  0  0  0
M  END
> <From> 
www.bindingDB.org

> <BindingDB Reactant_set_id>
50904829

> <Ligand InChI>
InChI=1S/C19H17N7O/c1-12-8-22-18(23-9-12)15-6-14(13-4-3-5-21-10-13)7-17-24-16(11-26(15)17)25-19(27)20-2/h3-11H,1-2H3,(H2,20,25,27)

> <Ligand InChI Key>
ULDPAUYYMDRQGQ-UHFFFAOYSA-N

> <BindingDB MonomerID>
50378438

> <BindingDB Ligand Name>
CHEMBL577053

> <Target Name Assigned by Curator or DataSource>
DNA gyrase subunit B

> <Target Source Organism According to Curator or DataSource>
Streptococcus pneumoniae

> <Ki (nM)>


> <IC50 (nM)>
 92

> <Kd (nM)>


> <EC50 (nM)>


> <kon (M-1-s-1)>


> <koff (s-1)>


> <pH>


> <Temp C>


> <Curation/DataSource>
ChEMBL

> <Article DOI>
10.1016/j.bmcl.2009.07.141

> <PMID>
19683922

> <PubChem AID>


> <Patent Number>


> <Authors>
Starr, JT; Sciotti, RJ; Hanna, DL; Huband, MD; Mullins, LM; Cai, H; Gage, JW; Lockard, M; Rauckhorst, MR; Owen, RM; Lall, MS; Tomilo, M; Chen, H; McCurdy, SP; Barbachyn, MR

> <Institution>
Pfizer Inc.

> <Link to Ligand in BindingDB>
http://www.bindingdb.org/bind/chemsearch/marvin/MolStructure.jsp?monomerid=50378438

> <Link to Ligand-Target Pair in BindingDB>
http://www.bindingdb.org/jsp/dbsearch/PrimarySearch_ki.jsp?energyterm=kJ/mole&tag=pol&polymerid=50005944&target=DNA+gyrase+subunit+B&column=ki&startPg=0&Increment=50&submit=Search

> <Link to Ligand-Target Pair in BindingDB>
http://www.bindingdb.org/jsp/dbsearch/PrimarySearch_ki.jsp?energyterm=kJ/mole&tag=r21&monomerid=50378438&enzyme=DNA+gyrase+subunit+B&column=ki&startPg=0&Increment=50&submit=Search

> <Ligand HET ID in PDB>


> <PDB ID(s) for Ligand-Target Complex>


> <PubChem CID>
45484771

> <PubChem SID>
160857521

> <ChEBI ID of Ligand>


> <ChEMBL ID of Ligand>
CHEMBL577053

> <DrugBank ID of Ligand>


> <IUPHAR_GRAC ID of Ligand>


> <KEGG ID of Ligand>


> <ZINC ID of Ligand>
ZINC45298675

> <Number of Protein Chains in Target (>1 implies a multichain complex)>
1

> <BindingDB Target Chain Sequence>
MTEEIKNLQAQDYDASQIQVLEGLEAVRMRPGMYIGSTSKEGLHHLVWEIVDNSIDEALAGFASHIQVFIEPDDSITVVDDGRGIPVDIQEKTGRPAVETVFTVLHAGGKFGGGGYKVSGGLHGVGSSVVNALSTQLDVHVHKNGKIHYQEYRRGHVVADLEIVGDTDKTGTTVHFTPDPKIFTETTIFDFDKLNKRIQELAFLNRGLQISITDKRQGLEQTKHYHYEGGIASYVEYINENKDVIFDTPIYTDGEMDDITVEVAMQYTTGYHENVMSFANNIHTHEGGTHEQGFRTALTRVINDYARKNKLLKDNEDNLTGEDVREGLTAVISVKHPNPQFEGQTKTKLGNSEVVKITNRLFSEAFSDFLMENPQIAKRIVEKGILAAKARVAAKRAREVTRKKSGLEISNLPGKLADCSSNNPAETELFIVEGDSAGGSAKSGRNREFQAILPIRGKILNVEKASMDKILANEEIRSLFTAMGTGFGAEFDVSKARYQKLVLMTDADVDGAHIRTLLLTLIYRYMKPILEAGYVYIAQPPIYGVKVGSEIKEYIQPGADQEIKLQEALARYSEGRTKPTIQRYKGLGEMDDHQLWETTMDPEHRLMARVSVDDAAEADKIFDMLMGDRVEPRREFIEENAVYSTLDV

> <PDB ID(s) of Target Chain>
4Z2C,4Z2D,4Z2E

> <UniProt (SwissProt) Recommended Name of Target Chain>
DNA gyrase subunit B

> <UniProt (SwissProt) Entry Name of Target Chain>
GYRB_STRPN

> <UniProt (SwissProt) Primary ID of Target Chain>
P0A4L9

> <UniProt (SwissProt) Secondary ID(s) of Target Chain>
P48373

> <UniProt (SwissProt) Alternative ID(s) of Target Chain>


> <UniProt (TrEMBL) Submitted Name of Target Chain>


> <UniProt (TrEMBL) Entry Name of Target Chain>


> <UniProt (TrEMBL) Primary ID of Target Chain>


> <UniProt (TrEMBL) Secondary ID(s) of Target Chain>


> <UniProt (TrEMBL) Alternative ID(s) of Target Chain>


$$$$

  Mrv0541 11241408262D          

 29 32  0  0  0  0            999 V2000
   -1.4264  -13.0541    0.0000 C   0  0  0  0  0  0  0  0  0  0  0  0
   -1.4276  -13.8815    0.0000 C   0  0  0  0  0  0  0  0  0  0  0  0
   -0.7128  -14.2944    0.0000 C   0  0  0  0  0  0  0  0  0  0  0  0
   -0.7146  -12.6414    0.0000 C   0  0  0  0  0  0  0  0  0  0  0  0
    0.7921  -12.7965    0.0000 N   0  0  0  0  0  0  0  0  0  0  0  0
    0.0008  -13.0505    0.0000 C   0  0  0  0  0  0  0  0  0  0  0  0
   -0.0010  -13.8822    0.0000 N   0  0  0  0  0  0  0  0  0  0  0  0
    0.7901  -14.1396    0.0000 C   0  0  0  0  0  0  0  0  0  0  0  0
    1.2782  -13.4661    0.0000 C   0  0  0  0  0  0  0  0  0  0  0  0
   -2.1389  -12.6420    0.0000 C   0  0  0  0  0  0  0  0  0  0  0  0
   -2.1378  -11.8159    0.0000 C   0  0  0  0  0  0  0  0  0  0  0  0
   -2.8515  -11.4036    0.0000 N   0  0  0  0  0  0  0  0  0  0  0  0
   -3.5668  -11.8163    0.0000 C   0  0  0  0  0  0  0  0  0  0  0  0
   -3.5640  -12.6456    0.0000 C   0  0  0  0  0  0  0  0  0  0  0  0
   -2.8497  -13.0541    0.0000 C   0  0  0  0  0  0  0  0  0  0  0  0
   -0.7108  -15.1166    0.0000 C   0  0  0  0  0  0  0  0  0  0  0  0
   -1.4266  -15.5289    0.0000 N   0  0  0  0  0  0  0  0  0  0  0  0
   -1.4265  -16.3531    0.0000 C   0  0  0  0  0  0  0  0  0  0  0  0
   -0.7113  -16.7661    0.0000 C   0  0  0  0  0  0  0  0  0  0  0  0
    0.0053  -16.3487    0.0000 C   0  0  0  0  0  0  0  0  0  0  0  0
    0.0017  -15.5259    0.0000 N   0  0  0  0  0  0  0  0  0  0  0  0
    2.1032  -13.4658    0.0000 N   0  0  0  0  0  0  0  0  0  0  0  0
    2.5154  -12.7511    0.0000 C   0  0  0  0  0  0  0  0  0  0  0  0
    2.1026  -12.0368    0.0000 O   0  0  0  0  0  0  0  0  0  0  0  0
    3.3404  -12.7508    0.0000 N   0  0  0  0  0  0  0  0  0  0  0  0
    3.7532  -13.4651    0.0000 C   0  0  0  0  0  0  0  0  0  0  0  0
    4.5782  -13.4648    0.0000 C   0  0  0  0  0  0  0  0  0  0  0  0
   -4.2820  -11.4050    0.0000 C   0  0  0  0  0  0  0  0  0  0  0  0
   -0.7098  -17.5911    0.0000 C   0  0  0  0  0  0  0  0  0  0  0  0
  1  2  1  0  0  0  0
 14 15  1  0  0  0  0
 15 10  2  0  0  0  0
  1 10  1  0  0  0  0
  6  4  1  0  0  0  0
  5  6  2  0  0  0  0
 16 17  2  0  0  0  0
  7  8  1  0  0  0  0
 17 18  1  0  0  0  0
  8  9  2  0  0  0  0
 18 19  2  0  0  0  0
  9  5  1  0  0  0  0
 19 20  1  0  0  0  0
  4  1  2  0  0  0  0
 20 21  2  0  0  0  0
 21 16  1  0  0  0  0
  3 16  1  0  0  0  0
  6  7  1  0  0  0  0
  9 22  1  0  0  0  0
 10 11  1  0  0  0  0
 22 23  1  0  0  0  0
 23 24  2  0  0  0  0
 11 12  2  0  0  0  0
 23 25  1  0  0  0  0
  2  3  2  0  0  0  0
 25 26  1  0  0  0  0
 12 13  1  0  0  0  0
 26 27  1  0  0  0  0
  3  7  1  0  0  0  0
 13 28  1  0  0  0  0
 13 14  2  0  0  0  0
 19 29  1  0  0  0  0
M  END
> <From> 
www.bindingDB.org

> <BindingDB Reactant_set_id>
50904835

> <Ligand InChI>
InChI=1S/C21H21N7O/c1-4-22-21(29)27-18-12-28-17(20-24-9-13(2)10-25-20)7-16(8-19(28)26-18)15-6-5-14(3)23-11-15/h5-12H,4H2,1-3H3,(H2,22,27,29)

> <Ligand InChI Key>
PVKBVEDKZQIBPE-UHFFFAOYSA-N

> <BindingDB MonomerID>
50378444

> <BindingDB Ligand Name>
CHEMBL568021

> <Target Name Assigned by Curator or DataSource>
DNA gyrase subunit B

> <Target Source Organism According to Curator or DataSource>
Streptococcus pneumoniae

> <Ki (nM)>


> <IC50 (nM)>
 96

> <Kd (nM)>


> <EC50 (nM)>


> <kon (M-1-s-1)>


> <koff (s-1)>


> <pH>


> <Temp C>


> <Curation/DataSource>
ChEMBL

> <Article DOI>
10.1016/j.bmcl.2009.07.141

> <PMID>
19683922

> <PubChem AID>


> <Patent Number>


> <Authors>
Starr, JT; Sciotti, RJ; Hanna, DL; Huband, MD; Mullins, LM; Cai, H; Gage, JW; Lockard, M; Rauckhorst, MR; Owen, RM; Lall, MS; Tomilo, M; Chen, H; McCurdy, SP; Barbachyn, MR

> <Institution>
Pfizer Inc.

> <Link to Ligand in BindingDB>
http://www.bindingdb.org/bind/chemsearch/marvin/MolStructure.jsp?monomerid=50378444

> <Link to Ligand-Target Pair in BindingDB>
http://www.bindingdb.org/jsp/dbsearch/PrimarySearch_ki.jsp?energyterm=kJ/mole&tag=pol&polymerid=50005944&target=DNA+gyrase+subunit+B&column=ki&startPg=0&Increment=50&submit=Search

> <Link to Ligand-Target Pair in BindingDB>
http://www.bindingdb.org/jsp/dbsearch/PrimarySearch_ki.jsp?energyterm=kJ/mole&tag=r21&monomerid=50378444&enzyme=DNA+gyrase+subunit+B&column=ki&startPg=0&Increment=50&submit=Search

> <Ligand HET ID in PDB>


> <PDB ID(s) for Ligand-Target Complex>


> <PubChem CID>
45484821

> <PubChem SID>
160857527

> <ChEBI ID of Ligand>


> <ChEMBL ID of Ligand>
CHEMBL568021

> <DrugBank ID of Ligand>


> <IUPHAR_GRAC ID of Ligand>


> <KEGG ID of Ligand>


> <ZINC ID of Ligand>
ZINC45257706

> <Number of Protein Chains in Target (>1 implies a multichain complex)>
1

> <BindingDB Target Chain Sequence>
MTEEIKNLQAQDYDASQIQVLEGLEAVRMRPGMYIGSTSKEGLHHLVWEIVDNSIDEALAGFASHIQVFIEPDDSITVVDDGRGIPVDIQEKTGRPAVETVFTVLHAGGKFGGGGYKVSGGLHGVGSSVVNALSTQLDVHVHKNGKIHYQEYRRGHVVADLEIVGDTDKTGTTVHFTPDPKIFTETTIFDFDKLNKRIQELAFLNRGLQISITDKRQGLEQTKHYHYEGGIASYVEYINENKDVIFDTPIYTDGEMDDITVEVAMQYTTGYHENVMSFANNIHTHEGGTHEQGFRTALTRVINDYARKNKLLKDNEDNLTGEDVREGLTAVISVKHPNPQFEGQTKTKLGNSEVVKITNRLFSEAFSDFLMENPQIAKRIVEKGILAAKARVAAKRAREVTRKKSGLEISNLPGKLADCSSNNPAETELFIVEGDSAGGSAKSGRNREFQAILPIRGKILNVEKASMDKILANEEIRSLFTAMGTGFGAEFDVSKARYQKLVLMTDADVDGAHIRTLLLTLIYRYMKPILEAGYVYIAQPPIYGVKVGSEIKEYIQPGADQEIKLQEALARYSEGRTKPTIQRYKGLGEMDDHQLWETTMDPEHRLMARVSVDDAAEADKIFDMLMGDRVEPRREFIEENAVYSTLDV

> <PDB ID(s) of Target Chain>
4Z2C,4Z2D,4Z2E

> <UniProt (SwissProt) Recommended Name of Target Chain>
DNA gyrase subunit B

> <UniProt (SwissProt) Entry Name of Target Chain>
GYRB_STRPN

> <UniProt (SwissProt) Primary ID of Target Chain>
P0A4L9

> <UniProt (SwissProt) Secondary ID(s) of Target Chain>
P48373

> <UniProt (SwissProt) Alternative ID(s) of Target Chain>


> <UniProt (TrEMBL) Submitted Name of Target Chain>


> <UniProt (TrEMBL) Entry Name of Target Chain>


> <UniProt (TrEMBL) Primary ID of Target Chain>


> <UniProt (TrEMBL) Secondary ID(s) of Target Chain>


> <UniProt (TrEMBL) Alternative ID(s) of Target Chain>


$$$$

  Mrv0541 11241408262D          

 32 35  0  0  0  0            999 V2000
   -0.1556   -8.1208    0.0000 C   0  0  0  0  0  0  0  0  0  0  0  0
   -0.1568   -8.9482    0.0000 C   0  0  0  0  0  0  0  0  0  0  0  0
    0.5581   -9.3610    0.0000 C   0  0  0  0  0  0  0  0  0  0  0  0
    0.5563   -7.7080    0.0000 C   0  0  0  0  0  0  0  0  0  0  0  0
    2.0629   -7.8631    0.0000 N   0  0  0  0  0  0  0  0  0  0  0  0
    1.2716   -8.1172    0.0000 C   0  0  0  0  0  0  0  0  0  0  0  0
    1.2698   -8.9489    0.0000 N   0  0  0  0  0  0  0  0  0  0  0  0
    2.0610   -9.2063    0.0000 C   0  0  0  0  0  0  0  0  0  0  0  0
    2.5490   -8.5328    0.0000 C   0  0  0  0  0  0  0  0  0  0  0  0
   -0.8681   -7.7086    0.0000 C   0  0  0  0  0  0  0  0  0  0  0  0
   -0.8669   -6.8825    0.0000 C   0  0  0  0  0  0  0  0  0  0  0  0
   -1.5806   -6.4703    0.0000 C   0  0  0  0  0  0  0  0  0  0  0  0
   -2.2960   -6.8830    0.0000 N   0  0  0  0  0  0  0  0  0  0  0  0
    0.5601  -10.1833    0.0000 C   0  0  0  0  0  0  0  0  0  0  0  0
   -0.1558  -10.5956    0.0000 N   0  0  0  0  0  0  0  0  0  0  0  0
   -0.1557  -11.4198    0.0000 C   0  0  0  0  0  0  0  0  0  0  0  0
    0.5595  -11.8327    0.0000 C   0  0  0  0  0  0  0  0  0  0  0  0
    1.2761  -11.4154    0.0000 C   0  0  0  0  0  0  0  0  0  0  0  0
    1.2725  -10.5925    0.0000 N   0  0  0  0  0  0  0  0  0  0  0  0
    3.3740   -8.5324    0.0000 N   0  0  0  0  0  0  0  0  0  0  0  0
    3.7862   -7.8178    0.0000 C   0  0  0  0  0  0  0  0  0  0  0  0
    3.3734   -7.1035    0.0000 O   0  0  0  0  0  0  0  0  0  0  0  0
    4.6112   -7.8175    0.0000 N   0  0  0  0  0  0  0  0  0  0  0  0
    5.0240   -8.5318    0.0000 C   0  0  0  0  0  0  0  0  0  0  0  0
    5.8490   -8.5314    0.0000 C   0  0  0  0  0  0  0  0  0  0  0  0
    0.5611  -12.6577    0.0000 C   0  0  0  0  0  0  0  0  0  0  0  0
   -2.2963   -7.7080    0.0000 C   0  0  0  0  0  0  0  0  0  0  0  0
   -1.5819   -8.1207    0.0000 C   0  0  0  0  0  0  0  0  0  0  0  0
   -1.5804   -5.6453    0.0000 O   0  0  0  0  0  0  0  0  0  0  0  0
   -3.0104   -6.4703    0.0000 C   0  0  0  0  0  0  0  0  0  0  0  0
   -3.7250   -6.8826    0.0000 C   0  0  0  0  0  0  0  0  0  0  0  0
   -4.4393   -6.4699    0.0000 C   0  0  0  0  0  0  0  0  0  0  0  0
  6  4  1  0  0  0  0
 15 16  2  0  0  0  0
  5  6  2  0  0  0  0
 16 17  1  0  0  0  0
  7  8  1  0  0  0  0
 17 18  2  0  0  0  0
  8  9  2  0  0  0  0
 18 19  1  0  0  0  0
 19 14  2  0  0  0  0
  3 14  1  0  0  0  0
  9  5  1  0  0  0  0
  9 20  1  0  0  0  0
  4  1  2  0  0  0  0
 20 21  1  0  0  0  0
  6  7  1  0  0  0  0
 21 22  2  0  0  0  0
 10 11  2  0  0  0  0
 21 23  1  0  0  0  0
 23 24  1  0  0  0  0
 11 12  1  0  0  0  0
 24 25  1  0  0  0  0
  2  3  2  0  0  0  0
 17 26  1  0  0  0  0
 12 13  1  0  0  0  0
 13 27  1  0  0  0  0
 28 10  1  0  0  0  0
 27 28  2  0  0  0  0
  1 10  1  0  0  0  0
 12 29  2  0  0  0  0
  3  7  1  0  0  0  0
 13 30  1  0  0  0  0
  1  2  1  0  0  0  0
 30 31  1  0  0  0  0
 14 15  1  0  0  0  0
 31 32  1  0  0  0  0
M  END
> <From> 
www.bindingDB.org

> <BindingDB Reactant_set_id>
50904807

> <Ligand InChI>
InChI=1S/C23H25N7O2/c1-4-7-29-8-6-16(11-21(29)31)17-9-18(22-25-12-15(3)13-26-22)30-14-19(27-20(30)10-17)28-23(32)24-5-2/h6,8-14H,4-5,7H2,1-3H3,(H2,24,28,32)

> <Ligand InChI Key>
GYWZWAMVOFEQQF-UHFFFAOYSA-N

> <BindingDB MonomerID>
50378421

> <BindingDB Ligand Name>
CHEMBL578149

> <Target Name Assigned by Curator or DataSource>
DNA gyrase subunit B

> <Target Source Organism According to Curator or DataSource>
Streptococcus pneumoniae

> <Ki (nM)>


> <IC50 (nM)>
 97

> <Kd (nM)>


> <EC50 (nM)>


> <kon (M-1-s-1)>


> <koff (s-1)>


> <pH>


> <Temp C>


> <Curation/DataSource>
ChEMBL

> <Article DOI>
10.1016/j.bmcl.2009.07.141

> <PMID>
19683922

> <PubChem AID>


> <Patent Number>


> <Authors>
Starr, JT; Sciotti, RJ; Hanna, DL; Huband, MD; Mullins, LM; Cai, H; Gage, JW; Lockard, M; Rauckhorst, MR; Owen, RM; Lall, MS; Tomilo, M; Chen, H; McCurdy, SP; Barbachyn, MR

> <Institution>
Pfizer Inc.

> <Link to Ligand in BindingDB>
http://www.bindingdb.org/bind/chemsearch/marvin/MolStructure.jsp?monomerid=50378421

> <Link to Ligand-Target Pair in BindingDB>
http://www.bindingdb.org/jsp/dbsearch/PrimarySearch_ki.jsp?energyterm=kJ/mole&tag=pol&polymerid=50005944&target=DNA+gyrase+subunit+B&column=ki&startPg=0&Increment=50&submit=Search

> <Link to Ligand-Target Pair in BindingDB>
http://www.bindingdb.org/jsp/dbsearch/PrimarySearch_ki.jsp?energyterm=kJ/mole&tag=r21&monomerid=50378421&enzyme=DNA+gyrase+subunit+B&column=ki&startPg=0&Increment=50&submit=Search

> <Ligand HET ID in PDB>


> <PDB ID(s) for Ligand-Target Complex>


> <PubChem CID>
45484810

> <PubChem SID>
160857504

> <ChEBI ID of Ligand>


> <ChEMBL ID of Ligand>
CHEMBL578149

> <DrugBank ID of Ligand>


> <IUPHAR_GRAC ID of Ligand>


> <KEGG ID of Ligand>


> <ZINC ID of Ligand>
ZINC45300972

> <Number of Protein Chains in Target (>1 implies a multichain complex)>
1

> <BindingDB Target Chain Sequence>
MTEEIKNLQAQDYDASQIQVLEGLEAVRMRPGMYIGSTSKEGLHHLVWEIVDNSIDEALAGFASHIQVFIEPDDSITVVDDGRGIPVDIQEKTGRPAVETVFTVLHAGGKFGGGGYKVSGGLHGVGSSVVNALSTQLDVHVHKNGKIHYQEYRRGHVVADLEIVGDTDKTGTTVHFTPDPKIFTETTIFDFDKLNKRIQELAFLNRGLQISITDKRQGLEQTKHYHYEGGIASYVEYINENKDVIFDTPIYTDGEMDDITVEVAMQYTTGYHENVMSFANNIHTHEGGTHEQGFRTALTRVINDYARKNKLLKDNEDNLTGEDVREGLTAVISVKHPNPQFEGQTKTKLGNSEVVKITNRLFSEAFSDFLMENPQIAKRIVEKGILAAKARVAAKRAREVTRKKSGLEISNLPGKLADCSSNNPAETELFIVEGDSAGGSAKSGRNREFQAILPIRGKILNVEKASMDKILANEEIRSLFTAMGTGFGAEFDVSKARYQKLVLMTDADVDGAHIRTLLLTLIYRYMKPILEAGYVYIAQPPIYGVKVGSEIKEYIQPGADQEIKLQEALARYSEGRTKPTIQRYKGLGEMDDHQLWETTMDPEHRLMARVSVDDAAEADKIFDMLMGDRVEPRREFIEENAVYSTLDV

> <PDB ID(s) of Target Chain>
4Z2C,4Z2D,4Z2E

> <UniProt (SwissProt) Recommended Name of Target Chain>
DNA gyrase subunit B

> <UniProt (SwissProt) Entry Name of Target Chain>
GYRB_STRPN

> <UniProt (SwissProt) Primary ID of Target Chain>
P0A4L9

> <UniProt (SwissProt) Secondary ID(s) of Target Chain>
P48373

> <UniProt (SwissProt) Alternative ID(s) of Target Chain>


> <UniProt (TrEMBL) Submitted Name of Target Chain>


> <UniProt (TrEMBL) Entry Name of Target Chain>


> <UniProt (TrEMBL) Primary ID of Target Chain>


> <UniProt (TrEMBL) Secondary ID(s) of Target Chain>


> <UniProt (TrEMBL) Alternative ID(s) of Target Chain>


$$$$

  Mrv0541 11241408262D          

 33 36  0  0  0  0            999 V2000
   -0.5306  -16.2666    0.0000 C   0  0  0  0  0  0  0  0  0  0  0  0
   -0.5318  -17.0940    0.0000 C   0  0  0  0  0  0  0  0  0  0  0  0
    0.1831  -17.5069    0.0000 C   0  0  0  0  0  0  0  0  0  0  0  0
    0.1813  -15.8539    0.0000 C   0  0  0  0  0  0  0  0  0  0  0  0
    1.6879  -16.0090    0.0000 N   0  0  0  0  0  0  0  0  0  0  0  0
    0.8966  -16.2630    0.0000 C   0  0  0  0  0  0  0  0  0  0  0  0
    0.8948  -17.0947    0.0000 N   0  0  0  0  0  0  0  0  0  0  0  0
    1.6860  -17.3521    0.0000 C   0  0  0  0  0  0  0  0  0  0  0  0
    2.1740  -16.6786    0.0000 C   0  0  0  0  0  0  0  0  0  0  0  0
   -1.2431  -15.8545    0.0000 C   0  0  0  0  0  0  0  0  0  0  0  0
   -1.2419  -15.0284    0.0000 C   0  0  0  0  0  0  0  0  0  0  0  0
   -1.9556  -14.6161    0.0000 C   0  0  0  0  0  0  0  0  0  0  0  0
   -2.6710  -15.0288    0.0000 N   0  0  0  0  0  0  0  0  0  0  0  0
    0.1851  -18.3291    0.0000 C   0  0  0  0  0  0  0  0  0  0  0  0
   -0.5308  -18.7414    0.0000 N   0  0  0  0  0  0  0  0  0  0  0  0
   -0.5307  -19.5656    0.0000 C   0  0  0  0  0  0  0  0  0  0  0  0
    0.1845  -19.9786    0.0000 C   0  0  0  0  0  0  0  0  0  0  0  0
    0.9011  -19.5612    0.0000 C   0  0  0  0  0  0  0  0  0  0  0  0
    0.8975  -18.7384    0.0000 N   0  0  0  0  0  0  0  0  0  0  0  0
    2.9990  -16.6783    0.0000 N   0  0  0  0  0  0  0  0  0  0  0  0
    3.4112  -15.9636    0.0000 C   0  0  0  0  0  0  0  0  0  0  0  0
    2.9984  -15.2493    0.0000 O   0  0  0  0  0  0  0  0  0  0  0  0
    4.2362  -15.9633    0.0000 N   0  0  0  0  0  0  0  0  0  0  0  0
    4.6490  -16.6776    0.0000 C   0  0  0  0  0  0  0  0  0  0  0  0
    5.4740  -16.6773    0.0000 C   0  0  0  0  0  0  0  0  0  0  0  0
    0.1861  -20.8036    0.0000 C   0  0  0  0  0  0  0  0  0  0  0  0
   -2.6713  -15.8538    0.0000 C   0  0  0  0  0  0  0  0  0  0  0  0
   -1.9569  -16.2665    0.0000 C   0  0  0  0  0  0  0  0  0  0  0  0
   -1.9554  -13.7911    0.0000 O   0  0  0  0  0  0  0  0  0  0  0  0
   -3.3854  -14.6161    0.0000 C   0  0  0  0  0  0  0  0  0  0  0  0
   -4.1000  -15.0284    0.0000 C   0  0  0  0  0  0  0  0  0  0  0  0
   -4.8143  -14.6157    0.0000 O   0  0  0  0  0  0  0  0  0  0  0  0
   -4.1002  -15.8534    0.0000 O   0  0  0  0  0  0  0  0  0  0  0  0
 15 16  2  0  0  0  0
  5  6  2  0  0  0  0
 16 17  1  0  0  0  0
  7  8  1  0  0  0  0
 17 18  2  0  0  0  0
  8  9  2  0  0  0  0
 18 19  1  0  0  0  0
 19 14  2  0  0  0  0
  3 14  1  0  0  0  0
  9  5  1  0  0  0  0
  9 20  1  0  0  0  0
  4  1  2  0  0  0  0
 20 21  1  0  0  0  0
  6  7  1  0  0  0  0
 21 22  2  0  0  0  0
 10 11  2  0  0  0  0
 21 23  1  0  0  0  0
 23 24  1  0  0  0  0
 11 12  1  0  0  0  0
 24 25  1  0  0  0  0
  2  3  2  0  0  0  0
 17 26  1  0  0  0  0
 12 13  1  0  0  0  0
 13 27  1  0  0  0  0
 28 10  1  0  0  0  0
 27 28  2  0  0  0  0
  1 10  1  0  0  0  0
 12 29  2  0  0  0  0
  3  7  1  0  0  0  0
 13 30  1  0  0  0  0
  1  2  1  0  0  0  0
 30 31  1  0  0  0  0
 14 15  1  0  0  0  0
 31 32  1  0  0  0  0
  6  4  1  0  0  0  0
 31 33  2  0  0  0  0
M  END
> <From> 
www.bindingDB.org

> <BindingDB Reactant_set_id>
50904809

> <Ligand InChI>
InChI=1S/C22H21N7O4/c1-3-23-22(33)27-17-11-29-16(21-24-9-13(2)10-25-21)6-15(7-18(29)26-17)14-4-5-28(12-20(31)32)19(30)8-14/h4-11H,3,12H2,1-2H3,(H,31,32)(H2,23,27,33)

> <Ligand InChI Key>
HEIWWNZDLYGFJT-UHFFFAOYSA-N

> <BindingDB MonomerID>
50378423

> <BindingDB Ligand Name>
CHEMBL583440

> <Target Name Assigned by Curator or DataSource>
DNA gyrase subunit B

> <Target Source Organism According to Curator or DataSource>
Streptococcus pneumoniae

> <Ki (nM)>


> <IC50 (nM)>
 98

> <Kd (nM)>


> <EC50 (nM)>


> <kon (M-1-s-1)>


> <koff (s-1)>


> <pH>


> <Temp C>


> <Curation/DataSource>
ChEMBL

> <Article DOI>
10.1016/j.bmcl.2009.07.141

> <PMID>
19683922

> <PubChem AID>


> <Patent Number>


> <Authors>
Starr, JT; Sciotti, RJ; Hanna, DL; Huband, MD; Mullins, LM; Cai, H; Gage, JW; Lockard, M; Rauckhorst, MR; Owen, RM; Lall, MS; Tomilo, M; Chen, H; McCurdy, SP; Barbachyn, MR

> <Institution>
Pfizer Inc.

> <Link to Ligand in BindingDB>
http://www.bindingdb.org/bind/chemsearch/marvin/MolStructure.jsp?monomerid=50378423

> <Link to Ligand-Target Pair in BindingDB>
http://www.bindingdb.org/jsp/dbsearch/PrimarySearch_ki.jsp?energyterm=kJ/mole&tag=pol&polymerid=50005944&target=DNA+gyrase+subunit+B&column=ki&startPg=0&Increment=50&submit=Search

> <Link to Ligand-Target Pair in BindingDB>
http://www.bindingdb.org/jsp/dbsearch/PrimarySearch_ki.jsp?energyterm=kJ/mole&tag=r21&monomerid=50378423&enzyme=DNA+gyrase+subunit+B&column=ki&startPg=0&Increment=50&submit=Search

> <Ligand HET ID in PDB>


> <PDB ID(s) for Ligand-Target Complex>


> <PubChem CID>
45484822

> <PubChem SID>
160857506

> <ChEBI ID of Ligand>


> <ChEMBL ID of Ligand>
CHEMBL583440

> <DrugBank ID of Ligand>


> <IUPHAR_GRAC ID of Ligand>


> <KEGG ID of Ligand>


> <ZINC ID of Ligand>
ZINC45321218

> <Number of Protein Chains in Target (>1 implies a multichain complex)>
1

> <BindingDB Target Chain Sequence>
MTEEIKNLQAQDYDASQIQVLEGLEAVRMRPGMYIGSTSKEGLHHLVWEIVDNSIDEALAGFASHIQVFIEPDDSITVVDDGRGIPVDIQEKTGRPAVETVFTVLHAGGKFGGGGYKVSGGLHGVGSSVVNALSTQLDVHVHKNGKIHYQEYRRGHVVADLEIVGDTDKTGTTVHFTPDPKIFTETTIFDFDKLNKRIQELAFLNRGLQISITDKRQGLEQTKHYHYEGGIASYVEYINENKDVIFDTPIYTDGEMDDITVEVAMQYTTGYHENVMSFANNIHTHEGGTHEQGFRTALTRVINDYARKNKLLKDNEDNLTGEDVREGLTAVISVKHPNPQFEGQTKTKLGNSEVVKITNRLFSEAFSDFLMENPQIAKRIVEKGILAAKARVAAKRAREVTRKKSGLEISNLPGKLADCSSNNPAETELFIVEGDSAGGSAKSGRNREFQAILPIRGKILNVEKASMDKILANEEIRSLFTAMGTGFGAEFDVSKARYQKLVLMTDADVDGAHIRTLLLTLIYRYMKPILEAGYVYIAQPPIYGVKVGSEIKEYIQPGADQEIKLQEALARYSEGRTKPTIQRYKGLGEMDDHQLWETTMDPEHRLMARVSVDDAAEADKIFDMLMGDRVEPRREFIEENAVYSTLDV

> <PDB ID(s) of Target Chain>
4Z2C,4Z2D,4Z2E

> <UniProt (SwissProt) Recommended Name of Target Chain>
DNA gyrase subunit B

> <UniProt (SwissProt) Entry Name of Target Chain>
GYRB_STRPN

> <UniProt (SwissProt) Primary ID of Target Chain>
P0A4L9

> <UniProt (SwissProt) Secondary ID(s) of Target Chain>
P48373

> <UniProt (SwissProt) Alternative ID(s) of Target Chain>


> <UniProt (TrEMBL) Submitted Name of Target Chain>


> <UniProt (TrEMBL) Entry Name of Target Chain>


> <UniProt (TrEMBL) Primary ID of Target Chain>


> <UniProt (TrEMBL) Secondary ID(s) of Target Chain>


> <UniProt (TrEMBL) Alternative ID(s) of Target Chain>


$$$$

  Mrv0541 11231422262D          

 26 28  0  0  0  0            999 V2000
   -4.0000    1.3000    0.0000 N   0  0  0  0  0  0  0  0  0  0  0  0
   -4.6734    1.7867    0.0000 C   0  0  0  0  0  0  0  0  0  0  0  0
   -4.4167    2.5750    0.0000 C   0  0  0  0  0  0  0  0  0  0  0  0
   -3.5875    2.5750    0.0000 C   0  0  0  0  0  0  0  0  0  0  0  0
   -3.3309    1.7862    0.0000 C   0  0  0  0  0  0  0  0  0  0  0  0
   -5.4578    1.5311    0.0000 C   0  0  0  0  0  0  0  0  0  0  0  0
   -4.9014    3.2426    0.0000 Br  0  0  0  0  0  0  0  0  0  0  0  0
   -2.6141    1.3779    0.0000 C   0  0  0  0  0  0  0  0  0  0  0  0
   -2.6092    0.5529    0.0000 O   0  0  0  0  0  0  0  0  0  0  0  0
   -1.9020    1.7946    0.0000 N   0  0  0  0  0  0  0  0  0  0  0  0
   -1.1851    1.3863    0.0000 C   0  0  0  0  0  0  0  0  0  0  0  0
   -1.1840    0.5592    0.0000 C   0  0  0  0  0  0  0  0  0  0  0  0
   -0.4712    0.1510    0.0000 C   0  0  0  0  0  0  0  0  0  0  0  0
    0.2433    0.5642    0.0000 N   0  0  0  0  0  0  0  0  0  0  0  0
    0.2404    1.3901    0.0000 C   0  0  0  0  0  0  0  0  0  0  0  0
   -0.4770    1.8029    0.0000 C   0  0  0  0  0  0  0  0  0  0  0  0
    0.9586    0.1532    0.0000 C   0  0  0  0  0  0  0  0  0  0  0  0
    0.9567   -0.6719    0.0000 N   0  0  0  0  0  0  0  0  0  0  0  0
    1.6712   -1.0828    0.0000 C   0  0  0  0  0  0  0  0  0  0  0  0
    2.3858   -0.6688    0.0000 C   0  0  0  0  0  0  0  0  0  0  0  0
    2.3814    0.1605    0.0000 C   0  0  0  0  0  0  0  0  0  0  0  0
    1.6664    0.5677    0.0000 C   0  0  0  0  0  0  0  0  0  0  0  0
    1.6725   -1.9078    0.0000 Cl  0  0  0  0  0  0  0  0  0  0  0  0
    3.0936    0.5770    0.0000 C   0  0  0  0  0  0  0  0  0  0  0  0
    3.8103    0.1685    0.0000 N   0  0  0  0  0  0  0  0  0  0  0  0
    3.0889    1.4020    0.0000 O   0  0  0  0  0  0  0  0  0  0  0  0
  3  7  1  0  0  0  0
  1  2  1  0  0  0  0
 11 16  1  0  0  0  0
 12 13  1  0  0  0  0
 13 14  1  0  0  0  0
 14 15  1  0  0  0  0
 15 16  1  0  0  0  0
  5  8  1  0  0  0  0
 14 17  1  0  0  0  0
  3  4  1  0  0  0  0
 17 18  2  0  0  0  0
  8  9  2  0  0  0  0
 18 19  1  0  0  0  0
  4  5  2  0  0  0  0
 19 20  2  0  0  0  0
  8 10  1  0  0  0  0
 20 21  1  0  0  0  0
  5  1  1  0  0  0  0
 21 22  2  0  0  0  0
 22 17  1  0  0  0  0
 10 11  1  0  0  0  0
 19 23  1  0  0  0  0
 11 12  1  0  0  0  0
 21 24  1  0  0  0  0
  2  3  2  0  0  0  0
 24 25  1  0  0  0  0
  2  6  1  0  0  0  0
 24 26  2  0  0  0  0
M  END
> <From> 
www.bindingDB.org

> <BindingDB Reactant_set_id>
50705120

> <Ligand InChI>
InChI=1S/C17H19BrClN5O2/c1-9-12(18)8-13(21-9)17(26)22-11-2-4-24(5-3-11)15-7-10(16(20)25)6-14(19)23-15/h6-8,11,21H,2-5H2,1H3,(H2,20,25)(H,22,26)

> <Ligand InChI Key>
VGWPPOZAIBGCIA-UHFFFAOYSA-N

> <BindingDB MonomerID>
50358842

> <BindingDB Ligand Name>
CHEMBL1923427

> <Target Name Assigned by Curator or DataSource>
DNA Gyrase Subunit B

> <Target Source Organism According to Curator or DataSource>
Staphylococcus aureus

> <Ki (nM)>


> <IC50 (nM)>
 100

> <Kd (nM)>


> <EC50 (nM)>


> <kon (M-1-s-1)>


> <koff (s-1)>


> <pH>


> <Temp C>


> <Curation/DataSource>
ChEMBL

> <Article DOI>
10.1016/j.bmcl.2011.10.010

> <PMID>
22041057

> <PubChem AID>


> <Patent Number>


> <Authors>
Sherer, BA; Hull, K; Green, O; Basarab, G; Hauck, S; Hill, P; Loch, JT; Mullen, G; Bist, S; Bryant, J; Boriack-Sjodin, A; Read, J; DeGrace, N; Uria-Nickelsen, M; Illingworth, RN; Eakin, AE

> <Institution>
AstraZeneca R&amp;D Boston

> <Link to Ligand in BindingDB>
http://www.bindingdb.org/bind/chemsearch/marvin/MolStructure.jsp?monomerid=50358842

> <Link to Ligand-Target Pair in BindingDB>
http://www.bindingdb.org/jsp/dbsearch/PrimarySearch_ki.jsp?energyterm=kJ/mole&tag=pol&polymerid=2626&target=DNA+Gyrase+Subunit+B&column=ki&startPg=0&Increment=50&submit=Search

> <Link to Ligand-Target Pair in BindingDB>
http://www.bindingdb.org/jsp/dbsearch/PrimarySearch_ki.jsp?energyterm=kJ/mole&tag=r21&monomerid=50358842&enzyme=DNA+Gyrase+Subunit+B&column=ki&startPg=0&Increment=50&submit=Search

> <Ligand HET ID in PDB>


> <PDB ID(s) for Ligand-Target Complex>


> <PubChem CID>
11419319

> <PubChem SID>
136962866

> <ChEBI ID of Ligand>


> <ChEMBL ID of Ligand>
CHEMBL1923427

> <DrugBank ID of Ligand>


> <IUPHAR_GRAC ID of Ligand>


> <KEGG ID of Ligand>


> <ZINC ID of Ligand>
ZINC73196279

> <Number of Protein Chains in Target (>1 implies a multichain complex)>
1

> <BindingDB Target Chain Sequence>
MVTALSDVNNTDNYGAGQIQVLEGLEAVRKRPGMYIGSTSERGLHHLVWEIVDNSIDEALAGYANQIEVVIEKDNWIKVTDNGRGIPVDIQEKMGRPAVEVILTVLHAGGKFGGGGYKVSGGLHGVGSSVVNALSQDLEVYVHRNETIYHQAYKKGVPQFDLKEVGTTDKTGTVIRFKADGEIFTETTVYNYETLQQRIRELAFLNKGIQITLRDERDEENVREDSYHYEGGIKSYVELLNENKEPIHDEPIYIHQSKDDIEVEIAIQYNSGYATNLLTYANNIHTYEGGTHEDGFKRALTRVLNSYGLSSKIMKEEKDRLSGEDTREGMTAIISIKHGDPQFEGQTKTKLGNSEVRQVVDKLFSEHFERFLYENPQVARTVVEKGIMAARARVAAKKAREVTRRKSALDVASLPGKLADCSSKSPEECEIFLVEGDSAGGSTKSGRDSRTQAILPLRGKILNVEKARLDRILNNNEIRQMITAFGTGIGGDFDLAKARYHKIVIMTDADVDGAHIRTLLLTFFYRFMRPLIEAGYVYIAQPPLYKLTQGKQKYYVYNDRELDKLKSELNPTPKWSIARYKGLGEMNADQLWETTMNPEHRALLQVKLEDAIEADQTFEMLMGDVVENRRQFIEDNAVYANLDF

> <PDB ID(s) of Target Chain>


> <UniProt (SwissProt) Recommended Name of Target Chain>
DNA gyrase subunit B

> <UniProt (SwissProt) Entry Name of Target Chain>
GYRB_STAAU

> <UniProt (SwissProt) Primary ID of Target Chain>
P0A0K8

> <UniProt (SwissProt) Secondary ID(s) of Target Chain>
P20832

> <UniProt (SwissProt) Alternative ID(s) of Target Chain>


> <UniProt (TrEMBL) Submitted Name of Target Chain>


> <UniProt (TrEMBL) Entry Name of Target Chain>


> <UniProt (TrEMBL) Primary ID of Target Chain>


> <UniProt (TrEMBL) Secondary ID(s) of Target Chain>


> <UniProt (TrEMBL) Alternative ID(s) of Target Chain>


$$$$

  SciTegic09261414462D

 24 26  0  0  0  0            999 V2000
    4.5303  -17.7388    0.0000 C   0  0
    4.5291  -18.5583    0.0000 C   0  0
    5.2372  -18.9673    0.0000 C   0  0
    5.9468  -18.5579    0.0000 C   0  0
    5.9440  -17.7352    0.0000 C   0  0
    5.2354  -17.3299    0.0000 N   0  0
    3.8225  -17.3304    0.0000 N   0  0
    3.1149  -17.7391    0.0000 C   0  0
    2.4071  -17.3307    0.0000 N   0  0
    3.1151  -18.5563    0.0000 O   0  0
    1.6994  -17.7395    0.0000 C   0  0
    0.9916  -17.3310    0.0000 C   0  0
    6.6557  -18.9629    0.0000 C   0  0
    6.7424  -19.7755    0.0000 N   0  0
    7.4017  -18.6294    0.0000 S   0  0
    7.9495  -19.2357    0.0000 C   0  0
    7.5436  -19.9414    0.0000 C   0  0
    7.9516  -20.6437    0.0000 C   0  0
    8.7655  -20.6415    0.0000 C   0  0
    9.1696  -19.9312    0.0000 C   0  0
    8.7592  -19.2318    0.0000 C   0  0
    9.1636  -18.5217    0.0000 C   0  0
    9.9807  -18.5169    0.0000 O   0  0
    8.7508  -17.8164    0.0000 O   0  0
  1  2  2  0
  2  3  1  0
  3  4  2  0
  4  5  1  0
  5  6  2  0
  6  1  1  0
  1  7  1  0
  7  8  1  0
  8  9  1  0
  8 10  2  0
  9 11  1  0
 11 12  1  0
 13 14  2  0
 14 17  1  0
 16 15  1  0
 15 13  1  0
  4 13  1  0
 16 17  2  0
 17 18  1  0
 18 19  2  0
 19 20  1  0
 20 21  2  0
 21 16  1  0
 21 22  1  0
 22 23  1  0
 22 24  2  0
M  END
> <From> 
www.bindingDB.org

> <BindingDB Reactant_set_id>
50083260

> <Ligand InChI>
InChI=1S/C16H14N4O3S/c1-2-17-16(23)20-12-7-6-9(8-18-12)14-19-11-5-3-4-10(15(21)22)13(11)24-14/h3-8H,2H2,1H3,(H,21,22)(H2,17,18,20,23)

> <Ligand InChI Key>
XVQKFKSDOFVJRF-UHFFFAOYSA-N

> <BindingDB MonomerID>
50006556

> <BindingDB Ligand Name>
CHEMBL3235076

> <Target Name Assigned by Curator or DataSource>
DNA Gyrase Subunit B

> <Target Source Organism According to Curator or DataSource>
Staphylococcus aureus

> <Ki (nM)>


> <IC50 (nM)>
 100

> <Kd (nM)>


> <EC50 (nM)>


> <kon (M-1-s-1)>


> <koff (s-1)>


> <pH>


> <Temp C>


> <Curation/DataSource>
ChEMBL

> <Article DOI>
10.1021/jm401208b

> <PMID>
24098982

> <PubChem AID>


> <Patent Number>


> <Authors>
Basarab, GS; Basarab, GS; Boriack-Sjodin, PA; Boriack-Sjodin, PA; Illingworth, R; Illingworth, R; Manchester, JI; Manchester, JI; Dangel, B; Dangel, B; Sriram, S; Sriram, S

> <Institution>
AstraZeneca R&amp;D Boston

> <Link to Ligand in BindingDB>
http://www.bindingdb.org/bind/chemsearch/marvin/MolStructure.jsp?monomerid=50006556

> <Link to Ligand-Target Pair in BindingDB>
http://www.bindingdb.org/jsp/dbsearch/PrimarySearch_ki.jsp?energyterm=kJ/mole&tag=pol&polymerid=2626&target=DNA+Gyrase+Subunit+B&column=ki&startPg=0&Increment=50&submit=Search

> <Link to Ligand-Target Pair in BindingDB>
http://www.bindingdb.org/jsp/dbsearch/PrimarySearch_ki.jsp?energyterm=kJ/mole&tag=r21&monomerid=50006556&enzyme=DNA+Gyrase+Subunit+B&column=ki&startPg=0&Increment=50&submit=Search

> <Ligand HET ID in PDB>


> <PDB ID(s) for Ligand-Target Complex>


> <PubChem CID>
59208437

> <PubChem SID>
103919957

> <ChEBI ID of Ligand>


> <ChEMBL ID of Ligand>
CHEMBL3235076

> <DrugBank ID of Ligand>


> <IUPHAR_GRAC ID of Ligand>


> <KEGG ID of Ligand>


> <ZINC ID of Ligand>
ZINC26376174

> <Number of Protein Chains in Target (>1 implies a multichain complex)>
1

> <BindingDB Target Chain Sequence>
MVTALSDVNNTDNYGAGQIQVLEGLEAVRKRPGMYIGSTSERGLHHLVWEIVDNSIDEALAGYANQIEVVIEKDNWIKVTDNGRGIPVDIQEKMGRPAVEVILTVLHAGGKFGGGGYKVSGGLHGVGSSVVNALSQDLEVYVHRNETIYHQAYKKGVPQFDLKEVGTTDKTGTVIRFKADGEIFTETTVYNYETLQQRIRELAFLNKGIQITLRDERDEENVREDSYHYEGGIKSYVELLNENKEPIHDEPIYIHQSKDDIEVEIAIQYNSGYATNLLTYANNIHTYEGGTHEDGFKRALTRVLNSYGLSSKIMKEEKDRLSGEDTREGMTAIISIKHGDPQFEGQTKTKLGNSEVRQVVDKLFSEHFERFLYENPQVARTVVEKGIMAARARVAAKKAREVTRRKSALDVASLPGKLADCSSKSPEECEIFLVEGDSAGGSTKSGRDSRTQAILPLRGKILNVEKARLDRILNNNEIRQMITAFGTGIGGDFDLAKARYHKIVIMTDADVDGAHIRTLLLTFFYRFMRPLIEAGYVYIAQPPLYKLTQGKQKYYVYNDRELDKLKSELNPTPKWSIARYKGLGEMNADQLWETTMNPEHRALLQVKLEDAIEADQTFEMLMGDVVENRRQFIEDNAVYANLDF

> <PDB ID(s) of Target Chain>


> <UniProt (SwissProt) Recommended Name of Target Chain>
DNA gyrase subunit B

> <UniProt (SwissProt) Entry Name of Target Chain>
GYRB_STAAU

> <UniProt (SwissProt) Primary ID of Target Chain>
P0A0K8

> <UniProt (SwissProt) Secondary ID(s) of Target Chain>
P20832

> <UniProt (SwissProt) Alternative ID(s) of Target Chain>


> <UniProt (TrEMBL) Submitted Name of Target Chain>


> <UniProt (TrEMBL) Entry Name of Target Chain>


> <UniProt (TrEMBL) Primary ID of Target Chain>


> <UniProt (TrEMBL) Secondary ID(s) of Target Chain>


> <UniProt (TrEMBL) Alternative ID(s) of Target Chain>


$$$$

  Mrv0541 11231413392D          

 45 49  0  0  0  0            999 V2000
   -0.7572    0.9812    0.0000 C   0  0  0  0  0  0  0  0  0  0  0  0
   -1.4832    1.3828    0.0000 C   0  0  1  0  0  0  0  0  0  0  0  0
   -2.1900    0.9572    0.0000 C   0  0  2  0  0  0  0  0  0  0  0  0
   -2.1771    0.1284    0.0000 C   0  0  2  0  0  0  0  0  0  0  0  0
   -1.4511   -0.2731    0.0000 C   0  0  1  0  0  0  0  0  0  0  0  0
   -0.7381    0.1541    0.0000 O   0  0  0  0  0  0  0  0  0  0  0  0
   -1.4368   -1.0980    0.0000 O   0  0  0  0  0  0  0  0  0  0  0  0
   -0.7171   -1.5093    0.0000 C   0  0  0  0  0  0  0  0  0  0  0  0
   -0.7179   -2.3339    0.0000 C   0  0  0  0  0  0  0  0  0  0  0  0
   -0.0022   -1.0950    0.0000 C   0  0  0  0  0  0  0  0  0  0  0  0
    0.7122   -1.5128    0.0000 C   0  0  0  0  0  0  0  0  0  0  0  0
    0.7104   -2.3375    0.0000 C   0  0  0  0  0  0  0  0  0  0  0  0
   -0.0048   -2.7490    0.0000 C   0  0  0  0  0  0  0  0  0  0  0  0
   -0.0060   -3.5697    0.0000 O   0  0  0  0  0  0  0  0  0  0  0  0
    0.7063   -3.9850    0.0000 C   0  0  0  0  0  0  0  0  0  0  0  0
    1.4215   -3.5735    0.0000 C   0  0  0  0  0  0  0  0  0  0  0  0
    1.4245   -2.7466    0.0000 C   0  0  0  0  0  0  0  0  0  0  0  0
    2.1389   -2.3342    0.0000 O   0  0  0  0  0  0  0  0  0  0  0  0
    0.7039   -4.8100    0.0000 O   0  0  0  0  0  0  0  0  0  0  0  0
    2.1350   -3.9878    0.0000 N   0  0  0  0  0  0  0  0  0  0  0  0
    2.1329   -4.8128    0.0000 C   0  0  0  0  0  0  0  0  0  0  0  0
    1.4174   -5.2234    0.0000 O   0  0  0  0  0  0  0  0  0  0  0  0
    0.0703    1.0001    0.0000 C   0  0  0  0  0  0  0  0  0  0  0  0
   -0.7681    1.8043    0.0000 C   0  0  0  0  0  0  0  0  0  0  0  0
   -1.4983    2.2076    0.0000 O   0  0  0  0  0  0  0  0  0  0  0  0
   -0.7916    2.6332    0.0000 C   0  0  0  0  0  0  0  0  0  0  0  0
   -2.9113    1.3576    0.0000 O   0  0  0  0  0  0  0  0  0  0  0  0
   -2.9253    2.1825    0.0000 C   0  0  0  0  0  0  0  0  0  0  0  0
   -3.6464    2.5831    0.0000 C   0  0  0  0  0  0  0  0  0  0  0  0
   -2.2179    2.6070    0.0000 O   0  0  0  0  0  0  0  0  0  0  0  0
   -2.8844   -0.2962    0.0000 O   0  0  0  0  0  0  0  0  0  0  0  0
   -3.8822    3.3766    0.0000 C   0  0  0  0  0  0  0  0  0  0  0  0
   -4.7069    3.3997    0.0000 C   0  0  0  0  0  0  0  0  0  0  0  0
   -4.9836    2.6225    0.0000 C   0  0  0  0  0  0  0  0  0  0  0  0
   -4.3300    2.1192    0.0000 N   0  0  0  0  0  0  0  0  0  0  0  0
   -5.7016    2.2184    0.0000 C   0  0  0  0  0  0  0  0  0  0  0  0
   -1.4332   -2.7447    0.0000 C   0  0  0  0  0  0  0  0  0  0  0  0
    2.8463   -5.2270    0.0000 C   0  0  0  0  0  0  0  0  0  0  0  0
    2.8442   -6.0520    0.0000 C   0  0  0  0  0  0  0  0  0  0  0  0
    3.5577   -6.4663    0.0000 C   0  0  0  0  0  0  0  0  0  0  0  0
    3.5519   -7.2889    0.0000 C   0  0  0  0  0  0  0  0  0  0  0  0
    4.2644   -7.7030    0.0000 C   0  0  0  0  0  0  0  0  0  0  0  0
    4.9810   -7.2923    0.0000 C   0  0  0  0  0  0  0  0  0  0  0  0
    4.9804   -6.4630    0.0000 C   0  0  0  0  0  0  0  0  0  0  0  0
    4.2672   -6.0526    0.0000 C   0  0  0  0  0  0  0  0  0  0  0  0
  9 13  2  0  0  0  0
 21 22  2  0  0  0  0
 11 10  1  0  0  0  0
  1 23  1  0  0  0  0
 11 12  2  0  0  0  0
  1 24  1  0  0  0  0
  3  4  1  0  0  0  0
  2 25  1  1  0  0  0
 12 13  1  0  0  0  0
 25 26  1  0  0  0  0
  4  5  1  0  0  0  0
  3 27  1  6  0  0  0
  5  6  1  0  0  0  0
 27 28  1  0  0  0  0
 28 29  1  0  0  0  0
  5  7  1  1  0  0  0
 28 30  2  0  0  0  0
  2  1  1  0  0  0  0
  4 31  1  6  0  0  0
 29 32  2  0  0  0  0
  7  8  1  0  0  0  0
 12 17  1  0  0  0  0
 13 14  1  0  0  0  0
 14 15  1  0  0  0  0
 32 33  1  0  0  0  0
 33 34  2  0  0  0  0
 34 35  1  0  0  0  0
 35 29  1  0  0  0  0
 15 16  1  0  0  0  0
 34 36  1  0  0  0  0
 16 17  2  0  0  0  0
  9 37  1  0  0  0  0
  8  9  1  0  0  0  0
 21 38  1  0  0  0  0
 17 18  1  0  0  0  0
 38 39  2  0  0  0  0
  1  6  1  0  0  0  0
 39 40  1  0  0  0  0
 15 19  2  0  0  0  0
 40 41  2  0  0  0  0
  3  2  1  0  0  0  0
 41 42  1  0  0  0  0
 16 20  1  0  0  0  0
 42 43  2  0  0  0  0
  8 10  2  0  0  0  0
 43 44  1  0  0  0  0
 20 21  1  0  0  0  0
 44 45  2  0  0  0  0
 45 40  1  0  0  0  0
M  END
> <From> 
www.bindingDB.org

> <BindingDB Reactant_set_id>
50607682

> <Ligand InChI>
InChI=1S/C33H34N2O10/c1-17-11-14-21(34-17)30(39)44-28-26(38)32(45-33(3,4)29(28)41-5)42-22-15-13-20-25(37)24(31(40)43-27(20)18(22)2)35-23(36)16-12-19-9-7-6-8-10-19/h6-16,26,28-29,32,34,37-38H,1-5H3,(H,35,36)/b16-12+/t26-,28+,29-,32-/m1/s1

> <Ligand InChI Key>
DDVCDBQGDVVIDX-LTOQIBMHSA-N

> <BindingDB MonomerID>
50330311

> <BindingDB Ligand Name>
(3R,4S,5R,6R)-6-(3-cinnamamido-4-hydroxy-8-methyl-2-oxo-2H-chromen-7-yloxy)-5-hydroxy-3-methoxy-2,2-dimethyltetrahydro-2H-pyran-4-yl 5-methyl-1H-pyrrole-2-carboxylate::CHEMBL1275847

> <Target Name Assigned by Curator or DataSource>
DNA Gyrase Subunit B

> <Target Source Organism According to Curator or DataSource>
Escherichia coli

> <Ki (nM)>


> <IC50 (nM)>
 106

> <Kd (nM)>


> <EC50 (nM)>


> <kon (M-1-s-1)>


> <koff (s-1)>


> <pH>


> <Temp C>


> <Curation/DataSource>
ChEMBL

> <Article DOI>
10.1128/AAC.01235-07

> <PMID>
18347114

> <PubChem AID>


> <Patent Number>


> <Authors>
Anderle, C; Stieger, M; Burrell, M; Reinelt, S; Maxwell, A; Page, M; Heide, L

> <Institution>
Universit&#228;t T&#252;bingen

> <Link to Ligand in BindingDB>
http://www.bindingdb.org/bind/chemsearch/marvin/MolStructure.jsp?monomerid=50330311

> <Link to Ligand-Target Pair in BindingDB>
http://www.bindingdb.org/jsp/dbsearch/PrimarySearch_ki.jsp?energyterm=kJ/mole&tag=pol&polymerid=2630&target=DNA+Gyrase+Subunit+B&column=ki&startPg=0&Increment=50&submit=Search

> <Link to Ligand-Target Pair in BindingDB>
http://www.bindingdb.org/jsp/dbsearch/PrimarySearch_ki.jsp?energyterm=kJ/mole&tag=r21&monomerid=50330311&enzyme=DNA+Gyrase+Subunit+B&column=ki&startPg=0&Increment=50&submit=Search

> <Ligand HET ID in PDB>


> <PDB ID(s) for Ligand-Target Complex>


> <PubChem CID>
54730380

> <PubChem SID>
123109426

> <ChEBI ID of Ligand>


> <ChEMBL ID of Ligand>
CHEMBL1275847

> <DrugBank ID of Ligand>


> <IUPHAR_GRAC ID of Ligand>


> <KEGG ID of Ligand>


> <ZINC ID of Ligand>
ZINC64453737

> <Number of Protein Chains in Target (>1 implies a multichain complex)>
1

> <BindingDB Target Chain Sequence>
MSNSYDSSSIKVLKGLDAVRKRPGMYIGDTDDGTGLHHMVFEVVDNAIDEALAGHCKEII
VTIHADNSVSVQDDGRGIPTGIHPEEGVSAAEVIMTVLHAGGKFDDNSYKVSGGLHGVGV
SVVNALSQKLELVIQREGKIHRQIYEHGVPQAPLAVTGETEKTGTMVRFWPSLETFTNVT
EFEYEILAKRLRELSFLNSGVSIRLRDKRDGKEDHFHYEGGIKAFVEYLNKNKTPIHPNI
FYFSTEKDGIGVEVALQWNDGFQENIYCFTNNIPQRDGGTHLAGFRAAMTRTLNAYMDKE
GYSKKAKVSATGDDAREGLIAVVSVKVPDPKFSSQTKDKLVSSEVKSAVEQQMNELLAEY
LLENPTDAKIVVGKIIDAARAREAARRAREMTRRKGALDLAGLPGKLADCQERDPALSEL
YLVEGDSAGGSAKQGRNRKNQAILPLKGKILNVEKARFDKMLSSQEVATLITALGCGIGR
DEYNPDKLRYHSIIIMTDADVDGSHIRTLLLTFFYRQMPEIVERGHVYIAQPPLYKVKKG
KQEQYIKDDEAMDQYQISIALDGATLHTNASAPALAGEALEKLVSEYNATQKMINRMERR
YPKAMLKELIYQPTLTEADLSDEQTVTRWVNALVSELNDKEQHGSQWKFDVHTNAEQNLF
EPIVRVRTHGVDTDYPLDHEFITGGEYRRICTLGEKLRGLLEEDAFIERGERRQPVASFE
QALDWLVKESRRGLSIQRYKGLGEMNPEQLWETTMDPESRRMLRVTVKDAIAADQLFTTL
MGDAVEPRRAFIEENALKAANIDI

> <PDB ID(s) of Target Chain>
1KZN,3G7E,3NUH,4DUH,4HYP,4KFG,4PRV,4PRX,4PU9,4WUB,4WUC,4WUD,4XTJ,4ZVI,5L3J,5MMN,5MMO,5MMP,5Z4H,5Z4O,5Z9B,5Z9E,5Z9F,5Z9L,5Z9M,5Z9N,5Z9Q,6ENG,6F86,6F8J,6F94,6F96

> <UniProt (SwissProt) Recommended Name of Target Chain>
DNA gyrase subunit B

> <UniProt (SwissProt) Entry Name of Target Chain>
GYRB_ECOLI

> <UniProt (SwissProt) Primary ID of Target Chain>
P0AES6

> <UniProt (SwissProt) Secondary ID(s) of Target Chain>
O08438,P06982,Q2M811

> <UniProt (SwissProt) Alternative ID(s) of Target Chain>


> <UniProt (TrEMBL) Submitted Name of Target Chain>


> <UniProt (TrEMBL) Entry Name of Target Chain>


> <UniProt (TrEMBL) Primary ID of Target Chain>


> <UniProt (TrEMBL) Secondary ID(s) of Target Chain>


> <UniProt (TrEMBL) Alternative ID(s) of Target Chain>


$$$$

  Mrv0541 11241420052D          

 27 29  0  0  0  0            999 V2000
   19.8859  -24.7623    0.0000 C   0  0  0  0  0  0  0  0  0  0  0  0
   19.8848  -25.5897    0.0000 C   0  0  0  0  0  0  0  0  0  0  0  0
   20.5996  -26.0026    0.0000 N   0  0  0  0  0  0  0  0  0  0  0  0
   20.5978  -24.3495    0.0000 C   0  0  0  0  0  0  0  0  0  0  0  0
   19.1713  -24.3500    0.0000 C   0  0  0  0  0  0  0  0  0  0  0  0
   19.1747  -23.5240    0.0000 C   0  0  0  0  0  0  0  0  0  0  0  0
   18.4609  -23.1118    0.0000 N   0  0  0  0  0  0  0  0  0  0  0  0
   17.7456  -23.5245    0.0000 C   0  0  0  0  0  0  0  0  0  0  0  0
   17.7484  -24.3538    0.0000 C   0  0  0  0  0  0  0  0  0  0  0  0
   18.4627  -24.7623    0.0000 C   0  0  0  0  0  0  0  0  0  0  0  0
   21.3132  -24.7587    0.0000 C   0  0  0  0  0  0  0  0  0  0  0  0
   21.3134  -25.5898    0.0000 C   0  0  0  0  0  0  0  0  0  0  0  0
   22.1039  -25.8463    0.0000 S   0  0  0  0  0  0  0  0  0  0  0  0
   22.5922  -25.1738    0.0000 C   0  0  0  0  0  0  0  0  0  0  0  0
   22.1035  -24.5017    0.0000 N   0  0  0  0  0  0  0  0  0  0  0  0
   23.4172  -25.1735    0.0000 N   0  0  0  0  0  0  0  0  0  0  0  0
   23.8295  -24.4589    0.0000 C   0  0  0  0  0  0  0  0  0  0  0  0
   24.6544  -24.4587    0.0000 O   0  0  0  0  0  0  0  0  0  0  0  0
   23.4167  -23.7446    0.0000 N   0  0  0  0  0  0  0  0  0  0  0  0
   23.8290  -23.0299    0.0000 C   0  0  0  0  0  0  0  0  0  0  0  0
   23.4162  -22.3157    0.0000 C   0  0  0  0  0  0  0  0  0  0  0  0
   19.1700  -26.0017    0.0000 O   0  0  0  0  0  0  0  0  0  0  0  0
   20.5999  -26.8276    0.0000 C   0  0  0  0  0  0  0  0  0  0  0  0
   19.8855  -27.2403    0.0000 C   0  0  0  0  0  0  0  0  0  0  0  0
   21.3144  -27.2399    0.0000 C   0  0  0  0  0  0  0  0  0  0  0  0
   21.3163  -28.0661    0.0000 N   0  0  0  0  0  0  0  0  0  0  0  0
   22.0305  -26.8284    0.0000 O   0  0  0  0  0  0  0  0  0  0  0  0
  1  2  1  0  0  0  0
  2  3  1  0  0  0  0
  3 12  1  0  0  0  0
 11  4  1  0  0  0  0
  4  1  2  0  0  0  0
  1  5  1  0  0  0  0
  5  6  2  0  0  0  0
  6  7  1  0  0  0  0
  7  8  2  0  0  0  0
  8  9  1  0  0  0  0
  9 10  2  0  0  0  0
 10  5  1  0  0  0  0
 11 12  2  0  0  0  0
 12 13  1  0  0  0  0
 13 14  1  0  0  0  0
 14 15  2  0  0  0  0
 15 11  1  0  0  0  0
 14 16  1  0  0  0  0
 16 17  1  0  0  0  0
 17 18  2  0  0  0  0
 17 19  1  0  0  0  0
 19 20  1  0  0  0  0
 20 21  1  0  0  0  0
  2 22  2  0  0  0  0
  3 23  1  0  0  0  0
 23 24  1  0  0  0  0
 23 25  1  0  0  0  0
 25 26  1  0  0  0  0
 25 27  2  0  0  0  0
M  END
> <From> 
www.bindingDB.org

> <BindingDB Reactant_set_id>
51091621

> <Ligand InChI>
InChI=1S/C17H18N6O3S/c1-3-20-16(26)22-17-21-12-7-11(10-5-4-6-19-8-10)14(25)23(15(12)27-17)9(2)13(18)24/h4-9H,3H2,1-2H3,(H2,18,24)(H2,20,21,22,26)

> <Ligand InChI Key>
SJXYZWADIQBLJO-UHFFFAOYSA-N

> <BindingDB MonomerID>
50447309

> <BindingDB Ligand Name>
CHEMBL3114196

> <Target Name Assigned by Curator or DataSource>
DNA gyrase subunit B

> <Target Source Organism According to Curator or DataSource>


> <Ki (nM)>


> <IC50 (nM)>
 107

> <Kd (nM)>


> <EC50 (nM)>


> <kon (M-1-s-1)>


> <koff (s-1)>


> <pH>


> <Temp C>


> <Curation/DataSource>
ChEMBL

> <Article DOI>
10.1016/j.bmcl.2013.12.080

> <PMID>
24405701

> <PubChem AID>


> <Patent Number>


> <Authors>
Kale, RR; Kale, MG; Waterson, D; Raichurkar, A; Hameed, SP; Manjunatha, MR; Kishore Reddy, BK; Malolanarasimhan, K; Shinde, V; Koushik, K; Jena, LK; Menasinakai, S; Humnabadkar, V; Madhavapeddi, P; Basavarajappa, H; Sharma, S; Nandishaiah, R; Mahesh Kumar, KN; Ganguly, S; Ahuja, V; Gaonkar, S; Naveen Kumar, CN; Ogg, D; Boriack-Sjodin, PA; Sambandamurthy, VK; de Sousa, SM; Ghorpade, SR

> <Institution>
AstraZeneca

> <Link to Ligand in BindingDB>
http://www.bindingdb.org/bind/chemsearch/marvin/MolStructure.jsp?monomerid=50447309

> <Link to Ligand-Target Pair in BindingDB>
http://www.bindingdb.org/jsp/dbsearch/PrimarySearch_ki.jsp?energyterm=kJ/mole&tag=pol&polymerid=50006452&target=DNA+gyrase+subunit+B&column=ki&startPg=0&Increment=50&submit=Search

> <Link to Ligand-Target Pair in BindingDB>
http://www.bindingdb.org/jsp/dbsearch/PrimarySearch_ki.jsp?energyterm=kJ/mole&tag=r21&monomerid=50447309&enzyme=DNA+gyrase+subunit+B&column=ki&startPg=0&Increment=50&submit=Search

> <Ligand HET ID in PDB>


> <PDB ID(s) for Ligand-Target Complex>


> <PubChem CID>
76314159

> <PubChem SID>
194945205

> <ChEBI ID of Ligand>


> <ChEMBL ID of Ligand>
CHEMBL3114196

> <DrugBank ID of Ligand>


> <IUPHAR_GRAC ID of Ligand>


> <KEGG ID of Ligand>


> <ZINC ID of Ligand>


> <Number of Protein Chains in Target (>1 implies a multichain complex)>
1

> <BindingDB Target Chain Sequence>
MAAQKNNAPKEYGADSITILEGLEAVRKRPGMYIGSTGERGLHHLIWEVVDNAVDEAMAGFATRVDVKIHADGSVEVRDDGRGIPVEMHATGMPTIDVVMTQLHAGGKFDGETYAVSGGLHGVGVSVVNALSTRLEATVLRDGYEWFQYYDRSVPGKLKQGGETKETGTTIRFWADPEIFETTDYNFETVARRLQEMAFLNKGLTIELTDERVTAEEVVDDVVKDTAEAPKTADEKAAEATGPSKVKHRVFHYPGGLVDYVKHINRTKTPIQQSIIDFDGKGPGHEVEIAMQWNAGYSESVHTFANTINTHEGGTHEEGFRAALTSVVNRYAKDKKLLKDKDPNLTGDDIREGLAAVISVKVAEPQFEGQTKTKLGNTEVKSFVQKICNEQLQHWFEANPAEAKTVVNKAVSSAQARIAARKARELVRRKSATDIGGLPGKLADCRSTDPSKSELYVVEGDSAGGSAKSGRDSMFQAILPLRGKIINVEKARIDRVLKNTEVQSIITALGTGIHDEFDISKLRYHKIVLMADADVDGQHISTLLLTLLFRFMKPLVENGHIFLAQPPLYKLKWQRSEPEFAYSDRERDGLLEAGRAAGKKINVDDGIQRYKGLGEMDAKELWETTMDPSVRVLRQVTLDDAAAADELFSILMGEDVEARRSFITRNAKDVRFLDV

> <PDB ID(s) of Target Chain>
4BAE

> <UniProt (SwissProt) Recommended Name of Target Chain>
DNA gyrase subunit B

> <UniProt (SwissProt) Entry Name of Target Chain>
GYRB_MYCSM

> <UniProt (SwissProt) Primary ID of Target Chain>
P0C559

> <UniProt (SwissProt) Secondary ID(s) of Target Chain>
P48355,Q59555

> <UniProt (SwissProt) Alternative ID(s) of Target Chain>


> <UniProt (TrEMBL) Submitted Name of Target Chain>


> <UniProt (TrEMBL) Entry Name of Target Chain>


> <UniProt (TrEMBL) Primary ID of Target Chain>


> <UniProt (TrEMBL) Secondary ID(s) of Target Chain>


> <UniProt (TrEMBL) Alternative ID(s) of Target Chain>


$$$$

  Mrv0541 11231422262D          

 26 28  0  0  0  0            999 V2000
   -3.3034  -20.0944    0.0000 N   0  0  0  0  0  0  0  0  0  0  0  0
   -3.9764  -19.6077    0.0000 C   0  0  0  0  0  0  0  0  0  0  0  0
   -3.7197  -18.8198    0.0000 C   0  0  0  0  0  0  0  0  0  0  0  0
   -2.8909  -18.8198    0.0000 C   0  0  0  0  0  0  0  0  0  0  0  0
   -2.6343  -19.6082    0.0000 C   0  0  0  0  0  0  0  0  0  0  0  0
   -4.7608  -19.8633    0.0000 C   0  0  0  0  0  0  0  0  0  0  0  0
   -1.9178  -20.0165    0.0000 C   0  0  0  0  0  0  0  0  0  0  0  0
   -1.9130  -20.8411    0.0000 O   0  0  0  0  0  0  0  0  0  0  0  0
   -1.2058  -19.5998    0.0000 N   0  0  0  0  0  0  0  0  0  0  0  0
   -0.4893  -20.0081    0.0000 C   0  0  1  0  0  0  0  0  0  0  0  0
   -0.4882  -20.8348    0.0000 C   0  0  1  0  0  0  0  0  0  0  0  0
    0.2246  -21.2430    0.0000 C   0  0  0  0  0  0  0  0  0  0  0  0
    0.9387  -20.8298    0.0000 N   0  0  0  0  0  0  0  0  0  0  0  0
    0.9358  -20.0043    0.0000 C   0  0  0  0  0  0  0  0  0  0  0  0
    0.2189  -19.5915    0.0000 C   0  0  0  0  0  0  0  0  0  0  0  0
    1.6542  -21.2408    0.0000 C   0  0  0  0  0  0  0  0  0  0  0  0
   -4.2044  -18.1522    0.0000 Cl  0  0  0  0  0  0  0  0  0  0  0  0
   -2.4061  -18.1522    0.0000 Cl  0  0  0  0  0  0  0  0  0  0  0  0
    1.9169  -22.0223    0.0000 S   0  0  0  0  0  0  0  0  0  0  0  0
    2.7414  -22.0155    0.0000 C   0  0  0  0  0  0  0  0  0  0  0  0
    2.9896  -21.2286    0.0000 C   0  0  0  0  0  0  0  0  0  0  0  0
    2.3180  -20.7495    0.0000 N   0  0  0  0  0  0  0  0  0  0  0  0
    3.1507  -22.7314    0.0000 C   0  0  0  0  0  0  0  0  0  0  0  0
    2.7350  -23.4438    0.0000 O   0  0  0  0  0  0  0  0  0  0  0  0
    3.9753  -22.7350    0.0000 O   0  0  0  0  0  0  0  0  0  0  0  0
   -1.2012  -21.2490    0.0000 F   0  0  0  0  0  0  0  0  0  0  0  0
  5  7  1  0  0  0  0
 10 15  1  0  0  0  0
 11 12  1  0  0  0  0
 12 13  1  0  0  0  0
 13 14  1  0  0  0  0
 14 15  1  0  0  0  0
  1  2  1  0  0  0  0
 13 16  1  0  0  0  0
  7  8  2  0  0  0  0
  3 17  1  0  0  0  0
  3  4  1  0  0  0  0
  4 18  1  0  0  0  0
 16 19  1  0  0  0  0
  7  9  1  0  0  0  0
  4  5  2  0  0  0  0
 10  9  1  6  0  0  0
 10 11  1  0  0  0  0
 19 20  1  0  0  0  0
 20 21  2  0  0  0  0
 21 22  1  0  0  0  0
 22 16  2  0  0  0  0
  5  1  1  0  0  0  0
 20 23  1  0  0  0  0
  2  3  2  0  0  0  0
 23 24  2  0  0  0  0
  2  6  1  0  0  0  0
 23 25  1  0  0  0  0
 11 26  1  1  0  0  0
M  END
> <From> 
www.bindingDB.org

> <BindingDB Reactant_set_id>
50705131

> <Ligand InChI>
InChI=1S/C15H15Cl2FN4O3S/c1-6-10(16)11(17)12(20-6)13(23)21-8-2-3-22(5-7(8)18)15-19-4-9(26-15)14(24)25/h4,7-8,20H,2-3,5H2,1H3,(H,21,23)(H,24,25)/t7-,8-/m1/s1

> <Ligand InChI Key>
BGDGHNSKANYMHF-HTQZYQBOSA-N

> <BindingDB MonomerID>
50358853

> <BindingDB Ligand Name>
CHEMBL1923439

> <Target Name Assigned by Curator or DataSource>
DNA Gyrase Subunit B

> <Target Source Organism According to Curator or DataSource>
Staphylococcus aureus

> <Ki (nM)>


> <IC50 (nM)>
 110

> <Kd (nM)>


> <EC50 (nM)>


> <kon (M-1-s-1)>


> <koff (s-1)>


> <pH>


> <Temp C>


> <Curation/DataSource>
ChEMBL

> <Article DOI>
10.1016/j.bmcl.2011.10.010

> <PMID>
22041057

> <PubChem AID>


> <Patent Number>


> <Authors>
Sherer, BA; Hull, K; Green, O; Basarab, G; Hauck, S; Hill, P; Loch, JT; Mullen, G; Bist, S; Bryant, J; Boriack-Sjodin, A; Read, J; DeGrace, N; Uria-Nickelsen, M; Illingworth, RN; Eakin, AE

> <Institution>
AstraZeneca R&amp;D Boston

> <Link to Ligand in BindingDB>
http://www.bindingdb.org/bind/chemsearch/marvin/MolStructure.jsp?monomerid=50358853

> <Link to Ligand-Target Pair in BindingDB>
http://www.bindingdb.org/jsp/dbsearch/PrimarySearch_ki.jsp?energyterm=kJ/mole&tag=pol&polymerid=2626&target=DNA+Gyrase+Subunit+B&column=ki&startPg=0&Increment=50&submit=Search

> <Link to Ligand-Target Pair in BindingDB>
http://www.bindingdb.org/jsp/dbsearch/PrimarySearch_ki.jsp?energyterm=kJ/mole&tag=r21&monomerid=50358853&enzyme=DNA+Gyrase+Subunit+B&column=ki&startPg=0&Increment=50&submit=Search

> <Ligand HET ID in PDB>


> <PDB ID(s) for Ligand-Target Complex>


> <PubChem CID>
57401241

> <PubChem SID>
136962877

> <ChEBI ID of Ligand>


> <ChEMBL ID of Ligand>
CHEMBL1923439

> <DrugBank ID of Ligand>


> <IUPHAR_GRAC ID of Ligand>


> <KEGG ID of Ligand>


> <ZINC ID of Ligand>
ZINC73158288

> <Number of Protein Chains in Target (>1 implies a multichain complex)>
1

> <BindingDB Target Chain Sequence>
MVTALSDVNNTDNYGAGQIQVLEGLEAVRKRPGMYIGSTSERGLHHLVWEIVDNSIDEALAGYANQIEVVIEKDNWIKVTDNGRGIPVDIQEKMGRPAVEVILTVLHAGGKFGGGGYKVSGGLHGVGSSVVNALSQDLEVYVHRNETIYHQAYKKGVPQFDLKEVGTTDKTGTVIRFKADGEIFTETTVYNYETLQQRIRELAFLNKGIQITLRDERDEENVREDSYHYEGGIKSYVELLNENKEPIHDEPIYIHQSKDDIEVEIAIQYNSGYATNLLTYANNIHTYEGGTHEDGFKRALTRVLNSYGLSSKIMKEEKDRLSGEDTREGMTAIISIKHGDPQFEGQTKTKLGNSEVRQVVDKLFSEHFERFLYENPQVARTVVEKGIMAARARVAAKKAREVTRRKSALDVASLPGKLADCSSKSPEECEIFLVEGDSAGGSTKSGRDSRTQAILPLRGKILNVEKARLDRILNNNEIRQMITAFGTGIGGDFDLAKARYHKIVIMTDADVDGAHIRTLLLTFFYRFMRPLIEAGYVYIAQPPLYKLTQGKQKYYVYNDRELDKLKSELNPTPKWSIARYKGLGEMNADQLWETTMNPEHRALLQVKLEDAIEADQTFEMLMGDVVENRRQFIEDNAVYANLDF

> <PDB ID(s) of Target Chain>


> <UniProt (SwissProt) Recommended Name of Target Chain>
DNA gyrase subunit B

> <UniProt (SwissProt) Entry Name of Target Chain>
GYRB_STAAU

> <UniProt (SwissProt) Primary ID of Target Chain>
P0A0K8

> <UniProt (SwissProt) Secondary ID(s) of Target Chain>
P20832

> <UniProt (SwissProt) Alternative ID(s) of Target Chain>


> <UniProt (TrEMBL) Submitted Name of Target Chain>


> <UniProt (TrEMBL) Entry Name of Target Chain>


> <UniProt (TrEMBL) Primary ID of Target Chain>


> <UniProt (TrEMBL) Secondary ID(s) of Target Chain>


> <UniProt (TrEMBL) Alternative ID(s) of Target Chain>


$$$$

  Mrv0541 11231422262D          

 26 28  0  0  0  0            999 V2000
    6.2125    0.8875    0.0000 N   0  0  0  0  0  0  0  0  0  0  0  0
    5.5391    1.3742    0.0000 C   0  0  0  0  0  0  0  0  0  0  0  0
    5.7958    2.1625    0.0000 C   0  0  0  0  0  0  0  0  0  0  0  0
    6.6250    2.1625    0.0000 C   0  0  0  0  0  0  0  0  0  0  0  0
    6.8816    1.3737    0.0000 C   0  0  0  0  0  0  0  0  0  0  0  0
    4.7547    1.1186    0.0000 C   0  0  0  0  0  0  0  0  0  0  0  0
    7.5984    0.9654    0.0000 C   0  0  0  0  0  0  0  0  0  0  0  0
    7.6033    0.1404    0.0000 O   0  0  0  0  0  0  0  0  0  0  0  0
    8.3105    1.3821    0.0000 N   0  0  0  0  0  0  0  0  0  0  0  0
    9.0274    0.9738    0.0000 C   0  0  0  0  0  0  0  0  0  0  0  0
    9.0285    0.1467    0.0000 C   0  0  0  0  0  0  0  0  0  0  0  0
    9.7413   -0.2615    0.0000 C   0  0  0  0  0  0  0  0  0  0  0  0
   10.4558    0.1517    0.0000 N   0  0  0  0  0  0  0  0  0  0  0  0
   10.4529    0.9776    0.0000 C   0  0  0  0  0  0  0  0  0  0  0  0
    9.7355    1.3904    0.0000 C   0  0  0  0  0  0  0  0  0  0  0  0
   11.1711   -0.2593    0.0000 C   0  0  0  0  0  0  0  0  0  0  0  0
   11.1692   -1.0844    0.0000 N   0  0  0  0  0  0  0  0  0  0  0  0
   11.8837   -1.4953    0.0000 C   0  0  0  0  0  0  0  0  0  0  0  0
   12.5983   -1.0813    0.0000 C   0  0  0  0  0  0  0  0  0  0  0  0
   12.5939   -0.2520    0.0000 C   0  0  0  0  0  0  0  0  0  0  0  0
   11.8789    0.1552    0.0000 C   0  0  0  0  0  0  0  0  0  0  0  0
   11.8850   -2.3203    0.0000 Cl  0  0  0  0  0  0  0  0  0  0  0  0
   13.3061    0.1645    0.0000 C   0  0  0  0  0  0  0  0  0  0  0  0
   14.0228   -0.2440    0.0000 N   0  0  0  0  0  0  0  0  0  0  0  0
   13.3014    0.9895    0.0000 O   0  0  0  0  0  0  0  0  0  0  0  0
    5.3111    2.8301    0.0000 Cl  0  0  0  0  0  0  0  0  0  0  0  0
  5  7  1  0  0  0  0
 10 15  1  0  0  0  0
 11 12  1  0  0  0  0
 12 13  1  0  0  0  0
 13 14  1  0  0  0  0
 14 15  1  0  0  0  0
  1  2  1  0  0  0  0
 13 16  1  0  0  0  0
  7  8  2  0  0  0  0
 16 17  2  0  0  0  0
  3  4  1  0  0  0  0
 17 18  1  0  0  0  0
  7  9  1  0  0  0  0
 18 19  2  0  0  0  0
  4  5  2  0  0  0  0
 19 20  1  0  0  0  0
  9 10  1  0  0  0  0
 20 21  2  0  0  0  0
 21 16  1  0  0  0  0
 10 11  1  0  0  0  0
 18 22  1  0  0  0  0
  5  1  1  0  0  0  0
 20 23  1  0  0  0  0
  2  3  2  0  0  0  0
 23 24  1  0  0  0  0
  2  6  1  0  0  0  0
 23 25  2  0  0  0  0
  3 26  1  0  0  0  0
M  END
> <From> 
www.bindingDB.org

> <BindingDB Reactant_set_id>
50705121

> <Ligand InChI>
InChI=1S/C17H19Cl2N5O2/c1-9-12(18)8-13(21-9)17(26)22-11-2-4-24(5-3-11)15-7-10(16(20)25)6-14(19)23-15/h6-8,11,21H,2-5H2,1H3,(H2,20,25)(H,22,26)

> <Ligand InChI Key>
QNIYISINHXWSSW-UHFFFAOYSA-N

> <BindingDB MonomerID>
50358843

> <BindingDB Ligand Name>
CHEMBL1923428

> <Target Name Assigned by Curator or DataSource>
DNA Gyrase Subunit B

> <Target Source Organism According to Curator or DataSource>
Staphylococcus aureus

> <Ki (nM)>


> <IC50 (nM)>
 110

> <Kd (nM)>


> <EC50 (nM)>


> <kon (M-1-s-1)>


> <koff (s-1)>


> <pH>


> <Temp C>


> <Curation/DataSource>
ChEMBL

> <Article DOI>
10.1016/j.bmcl.2011.10.010

> <PMID>
22041057

> <PubChem AID>


> <Patent Number>


> <Authors>
Sherer, BA; Hull, K; Green, O; Basarab, G; Hauck, S; Hill, P; Loch, JT; Mullen, G; Bist, S; Bryant, J; Boriack-Sjodin, A; Read, J; DeGrace, N; Uria-Nickelsen, M; Illingworth, RN; Eakin, AE

> <Institution>
AstraZeneca R&amp;D Boston

> <Link to Ligand in BindingDB>
http://www.bindingdb.org/bind/chemsearch/marvin/MolStructure.jsp?monomerid=50358843

> <Link to Ligand-Target Pair in BindingDB>
http://www.bindingdb.org/jsp/dbsearch/PrimarySearch_ki.jsp?energyterm=kJ/mole&tag=pol&polymerid=2626&target=DNA+Gyrase+Subunit+B&column=ki&startPg=0&Increment=50&submit=Search

> <Link to Ligand-Target Pair in BindingDB>
http://www.bindingdb.org/jsp/dbsearch/PrimarySearch_ki.jsp?energyterm=kJ/mole&tag=r21&monomerid=50358843&enzyme=DNA+Gyrase+Subunit+B&column=ki&startPg=0&Increment=50&submit=Search

> <Ligand HET ID in PDB>


> <PDB ID(s) for Ligand-Target Complex>


> <PubChem CID>
57401240

> <PubChem SID>
136962867

> <ChEBI ID of Ligand>


> <ChEMBL ID of Ligand>
CHEMBL1923428

> <DrugBank ID of Ligand>


> <IUPHAR_GRAC ID of Ligand>


> <KEGG ID of Ligand>


> <ZINC ID of Ligand>
ZINC73196627

> <Number of Protein Chains in Target (>1 implies a multichain complex)>
1

> <BindingDB Target Chain Sequence>
MVTALSDVNNTDNYGAGQIQVLEGLEAVRKRPGMYIGSTSERGLHHLVWEIVDNSIDEALAGYANQIEVVIEKDNWIKVTDNGRGIPVDIQEKMGRPAVEVILTVLHAGGKFGGGGYKVSGGLHGVGSSVVNALSQDLEVYVHRNETIYHQAYKKGVPQFDLKEVGTTDKTGTVIRFKADGEIFTETTVYNYETLQQRIRELAFLNKGIQITLRDERDEENVREDSYHYEGGIKSYVELLNENKEPIHDEPIYIHQSKDDIEVEIAIQYNSGYATNLLTYANNIHTYEGGTHEDGFKRALTRVLNSYGLSSKIMKEEKDRLSGEDTREGMTAIISIKHGDPQFEGQTKTKLGNSEVRQVVDKLFSEHFERFLYENPQVARTVVEKGIMAARARVAAKKAREVTRRKSALDVASLPGKLADCSSKSPEECEIFLVEGDSAGGSTKSGRDSRTQAILPLRGKILNVEKARLDRILNNNEIRQMITAFGTGIGGDFDLAKARYHKIVIMTDADVDGAHIRTLLLTFFYRFMRPLIEAGYVYIAQPPLYKLTQGKQKYYVYNDRELDKLKSELNPTPKWSIARYKGLGEMNADQLWETTMNPEHRALLQVKLEDAIEADQTFEMLMGDVVENRRQFIEDNAVYANLDF

> <PDB ID(s) of Target Chain>


> <UniProt (SwissProt) Recommended Name of Target Chain>
DNA gyrase subunit B

> <UniProt (SwissProt) Entry Name of Target Chain>
GYRB_STAAU

> <UniProt (SwissProt) Primary ID of Target Chain>
P0A0K8

> <UniProt (SwissProt) Secondary ID(s) of Target Chain>
P20832

> <UniProt (SwissProt) Alternative ID(s) of Target Chain>


> <UniProt (TrEMBL) Submitted Name of Target Chain>


> <UniProt (TrEMBL) Entry Name of Target Chain>


> <UniProt (TrEMBL) Primary ID of Target Chain>


> <UniProt (TrEMBL) Secondary ID(s) of Target Chain>


> <UniProt (TrEMBL) Alternative ID(s) of Target Chain>


$$$$

  SciTegic02271514412D

 27 29  0  0  0  0            999 V2000
   20.0839   -2.7405    0.0000 C   0  0
   19.2598   -2.7780    0.0000 C   0  0
   18.8842   -3.5078    0.0000 C   0  0  2  0  0  0
   19.3244   -4.2006    0.0000 C   0  0  1  0  0  0
   20.1485   -4.1631    0.0000 C   0  0
   20.5325   -3.4329    0.0000 N   0  0
   18.0601   -3.5452    0.0000 N   0  0
   17.6156   -2.8502    0.0000 C   0  0
   16.7914   -2.8876    0.0000 C   0  0
   17.9953   -2.1177    0.0000 O   0  0
   21.3567   -3.3955    0.0000 C   0  0
   16.2800   -2.2398    0.0000 C   0  0
   15.5078   -2.5301    0.0000 C   0  0
   15.5453   -3.3543    0.0000 C   0  0
   16.3406   -3.5732    0.0000 N   0  0
   21.8693   -4.0383    0.0000 N   0  0
   22.6416   -3.7481    0.0000 C   0  0
   22.6042   -2.9239    0.0000 C   0  0
   21.8088   -2.7049    0.0000 S   0  0
   23.2489   -2.4091    0.0000 C   0  0
   24.0171   -2.7101    0.0000 O   0  0
   23.1255   -1.5934    0.0000 O   0  0
   14.9005   -3.8690    0.0000 C   0  0
   16.5013   -1.4451    0.0000 Cl  0  0
   14.8190   -2.0760    0.0000 Cl  0  0
   18.9436   -4.9324    0.0000 O   0  0
   18.1194   -4.9686    0.0000 C   0  0
  1  2  1  0
  1  6  1  0
  2  3  1  0
  3  4  1  0
  4  5  1  0
  5  6  1  0
  3  7  1  6
  7  8  1  0
  8  9  1  0
  8 10  2  0
  6 11  1  0
  9 12  2  0
 12 13  1  0
 13 14  2  0
 14 15  1  0
 15  9  1  0
 11 16  2  0
 16 17  1  0
 17 18  2  0
 18 19  1  0
 19 11  1  0
 18 20  1  0
 20 21  1  0
 20 22  2  0
 14 23  1  0
 12 24  1  0
 13 25  1  0
  4 26  1  1
 26 27  1  0
M  END
> <From> 
www.bindingDB.org

> <BindingDB Reactant_set_id>
50271384

> <Ligand InChI>
InChI=1S/C16H18Cl2N4O4S/c1-7-11(17)12(18)13(20-7)14(23)21-8-3-4-22(6-9(8)26-2)16-19-5-10(27-16)15(24)25/h5,8-9,20H,3-4,6H2,1-2H3,(H,21,23)(H,24,25)/t8-,9-/m1/s1

> <Ligand InChI Key>
VJLIVOQJQIHFHR-RKDXNWHRSA-N

> <BindingDB MonomerID>
50047318

> <BindingDB Ligand Name>
CHEMBL3314527

> <Target Name Assigned by Curator or DataSource>
DNA Gyrase Subunit B

> <Target Source Organism According to Curator or DataSource>
Staphylococcus aureus

> <Ki (nM)>


> <IC50 (nM)>
 110

> <Kd (nM)>


> <EC50 (nM)>


> <kon (M-1-s-1)>


> <koff (s-1)>


> <pH>


> <Temp C>


> <Curation/DataSource>
ChEMBL

> <Article DOI>
10.1021/jm500462x

> <PMID>
24959892

> <PubChem AID>


> <Patent Number>


> <Authors>
Basarab, GS; Hill, PJ; Garner, CE; Hull, K; Green, O; Sherer, BA; Dangel, PB; Manchester, JI; Bist, S; Hauck, S; Zhou, F; Uria-Nickelsen, M; Illingworth, R; Alm, R; Rooney, M; Eakin, AE

> <Institution>
AstraZeneca

> <Link to Ligand in BindingDB>
http://www.bindingdb.org/bind/chemsearch/marvin/MolStructure.jsp?monomerid=50047318

> <Link to Ligand-Target Pair in BindingDB>
http://www.bindingdb.org/jsp/dbsearch/PrimarySearch_ki.jsp?energyterm=kJ/mole&tag=pol&polymerid=2626&target=DNA+Gyrase+Subunit+B&column=ki&startPg=0&Increment=50&submit=Search

> <Link to Ligand-Target Pair in BindingDB>
http://www.bindingdb.org/jsp/dbsearch/PrimarySearch_ki.jsp?energyterm=kJ/mole&tag=r21&monomerid=50047318&enzyme=DNA+Gyrase+Subunit+B&column=ki&startPg=0&Increment=50&submit=Search

> <Ligand HET ID in PDB>


> <PDB ID(s) for Ligand-Target Complex>


> <PubChem CID>
89699035

> <PubChem SID>
103977998

> <ChEBI ID of Ligand>


> <ChEMBL ID of Ligand>
CHEMBL33738

> <DrugBank ID of Ligand>


> <IUPHAR_GRAC ID of Ligand>


> <KEGG ID of Ligand>


> <ZINC ID of Ligand>
ZINC13827197

> <Number of Protein Chains in Target (>1 implies a multichain complex)>
1

> <BindingDB Target Chain Sequence>
MVTALSDVNNTDNYGAGQIQVLEGLEAVRKRPGMYIGSTSERGLHHLVWEIVDNSIDEALAGYANQIEVVIEKDNWIKVTDNGRGIPVDIQEKMGRPAVEVILTVLHAGGKFGGGGYKVSGGLHGVGSSVVNALSQDLEVYVHRNETIYHQAYKKGVPQFDLKEVGTTDKTGTVIRFKADGEIFTETTVYNYETLQQRIRELAFLNKGIQITLRDERDEENVREDSYHYEGGIKSYVELLNENKEPIHDEPIYIHQSKDDIEVEIAIQYNSGYATNLLTYANNIHTYEGGTHEDGFKRALTRVLNSYGLSSKIMKEEKDRLSGEDTREGMTAIISIKHGDPQFEGQTKTKLGNSEVRQVVDKLFSEHFERFLYENPQVARTVVEKGIMAARARVAAKKAREVTRRKSALDVASLPGKLADCSSKSPEECEIFLVEGDSAGGSTKSGRDSRTQAILPLRGKILNVEKARLDRILNNNEIRQMITAFGTGIGGDFDLAKARYHKIVIMTDADVDGAHIRTLLLTFFYRFMRPLIEAGYVYIAQPPLYKLTQGKQKYYVYNDRELDKLKSELNPTPKWSIARYKGLGEMNADQLWETTMNPEHRALLQVKLEDAIEADQTFEMLMGDVVENRRQFIEDNAVYANLDF

> <PDB ID(s) of Target Chain>


> <UniProt (SwissProt) Recommended Name of Target Chain>
DNA gyrase subunit B

> <UniProt (SwissProt) Entry Name of Target Chain>
GYRB_STAAU

> <UniProt (SwissProt) Primary ID of Target Chain>
P0A0K8

> <UniProt (SwissProt) Secondary ID(s) of Target Chain>
P20832

> <UniProt (SwissProt) Alternative ID(s) of Target Chain>


> <UniProt (TrEMBL) Submitted Name of Target Chain>


> <UniProt (TrEMBL) Entry Name of Target Chain>


> <UniProt (TrEMBL) Primary ID of Target Chain>


> <UniProt (TrEMBL) Secondary ID(s) of Target Chain>


> <UniProt (TrEMBL) Alternative ID(s) of Target Chain>


$$$$

  Mrv0541 11231413392D          

 43 47  0  0  0  0            999 V2000
    0.1685   -5.4260    0.0000 C   0  0  0  0  0  0  0  0  0  0  0  0
   -0.5573   -5.0244    0.0000 C   0  0  1  0  0  0  0  0  0  0  0  0
   -1.2640   -5.4499    0.0000 C   0  0  2  0  0  0  0  0  0  0  0  0
   -1.2512   -6.2787    0.0000 C   0  0  2  0  0  0  0  0  0  0  0  0
   -0.5253   -6.6802    0.0000 C   0  0  1  0  0  0  0  0  0  0  0  0
    0.1876   -6.2530    0.0000 O   0  0  0  0  0  0  0  0  0  0  0  0
   -0.5110   -7.5050    0.0000 O   0  0  0  0  0  0  0  0  0  0  0  0
    0.2087   -7.9163    0.0000 C   0  0  0  0  0  0  0  0  0  0  0  0
    0.2080   -8.7408    0.0000 C   0  0  0  0  0  0  0  0  0  0  0  0
    0.9235   -7.5021    0.0000 C   0  0  0  0  0  0  0  0  0  0  0  0
    1.6380   -7.9198    0.0000 C   0  0  0  0  0  0  0  0  0  0  0  0
    1.6361   -8.7444    0.0000 C   0  0  0  0  0  0  0  0  0  0  0  0
    0.9209   -9.1559    0.0000 C   0  0  0  0  0  0  0  0  0  0  0  0
    0.9197   -9.9766    0.0000 O   0  0  0  0  0  0  0  0  0  0  0  0
    1.6320  -10.3919    0.0000 C   0  0  0  0  0  0  0  0  0  0  0  0
    2.3473   -9.9804    0.0000 C   0  0  0  0  0  0  0  0  0  0  0  0
    2.3501   -9.1535    0.0000 C   0  0  0  0  0  0  0  0  0  0  0  0
    3.0646   -8.7411    0.0000 O   0  0  0  0  0  0  0  0  0  0  0  0
    1.6297  -11.2169    0.0000 O   0  0  0  0  0  0  0  0  0  0  0  0
    3.0607  -10.3947    0.0000 N   0  0  0  0  0  0  0  0  0  0  0  0
    3.0586  -11.2196    0.0000 C   0  0  0  0  0  0  0  0  0  0  0  0
    2.3431  -11.6302    0.0000 O   0  0  0  0  0  0  0  0  0  0  0  0
    3.7720  -11.6338    0.0000 C   0  0  0  0  0  0  0  0  0  0  0  0
    3.7670  -12.4579    0.0000 C   0  0  0  0  0  0  0  0  0  0  0  0
    4.4796  -12.8722    0.0000 C   0  0  0  0  0  0  0  0  0  0  0  0
    5.1960  -12.4614    0.0000 C   0  0  0  0  0  0  0  0  0  0  0  0
    5.1954  -11.6322    0.0000 C   0  0  0  0  0  0  0  0  0  0  0  0
    4.4823  -11.2217    0.0000 C   0  0  0  0  0  0  0  0  0  0  0  0
    0.9960   -5.4070    0.0000 C   0  0  0  0  0  0  0  0  0  0  0  0
    0.1577   -4.6029    0.0000 C   0  0  0  0  0  0  0  0  0  0  0  0
   -0.5724   -4.1996    0.0000 O   0  0  0  0  0  0  0  0  0  0  0  0
    0.1343   -3.7741    0.0000 C   0  0  0  0  0  0  0  0  0  0  0  0
   -1.9854   -5.0496    0.0000 O   0  0  0  0  0  0  0  0  0  0  0  0
   -1.9585   -6.7033    0.0000 O   0  0  0  0  0  0  0  0  0  0  0  0
   -0.5074   -9.1516    0.0000 Cl  0  0  0  0  0  0  0  0  0  0  0  0
   -2.6799   -6.3029    0.0000 C   0  0  0  0  0  0  0  0  0  0  0  0
   -3.3883   -6.7285    0.0000 C   0  0  0  0  0  0  0  0  0  0  0  0
   -2.6938   -5.4781    0.0000 O   0  0  0  0  0  0  0  0  0  0  0  0
   -4.0329   -6.2205    0.0000 N   0  0  0  0  0  0  0  0  0  0  0  0
   -4.7185   -6.6794    0.0000 C   0  0  0  0  0  0  0  0  0  0  0  0
   -4.4940   -7.4733    0.0000 C   0  0  0  0  0  0  0  0  0  0  0  0
   -3.6696   -7.5049    0.0000 C   0  0  0  0  0  0  0  0  0  0  0  0
   -5.4355   -6.2650    0.0000 C   0  0  0  0  0  0  0  0  0  0  0  0
  8 10  2  0  0  0  0
 20 21  1  0  0  0  0
  9 13  2  0  0  0  0
 21 22  2  0  0  0  0
 11 10  1  0  0  0  0
 21 23  1  0  0  0  0
 11 12  2  0  0  0  0
 23 24  2  0  0  0  0
  3  4  1  0  0  0  0
 24 25  1  0  0  0  0
 12 13  1  0  0  0  0
 25 26  2  0  0  0  0
  4  5  1  0  0  0  0
 26 27  1  0  0  0  0
  5  6  1  0  0  0  0
 27 28  2  0  0  0  0
 28 23  1  0  0  0  0
  1 29  1  0  0  0  0
  5  7  1  1  0  0  0
  1 30  1  0  0  0  0
  2  1  1  0  0  0  0
  2 31  1  1  0  0  0
  7  8  1  0  0  0  0
 31 32  1  0  0  0  0
 12 17  1  0  0  0  0
  3 33  1  6  0  0  0
 13 14  1  0  0  0  0
  4 34  1  6  0  0  0
 14 15  1  0  0  0  0
  9 35  1  0  0  0  0
 15 16  1  0  0  0  0
 34 36  1  0  0  0  0
 16 17  2  0  0  0  0
 36 37  1  0  0  0  0
  8  9  1  0  0  0  0
 36 38  2  0  0  0  0
 37 39  1  0  0  0  0
 17 18  1  0  0  0  0
  1  6  1  0  0  0  0
 15 19  2  0  0  0  0
  3  2  1  0  0  0  0
 39 40  1  0  0  0  0
 40 41  2  0  0  0  0
 41 42  1  0  0  0  0
 42 37  2  0  0  0  0
 16 20  1  0  0  0  0
 40 43  1  0  0  0  0
M  END
> <From> 
www.bindingDB.org

> <BindingDB Reactant_set_id>
50607693

> <Ligand InChI>
InChI=1S/C30H29ClN2O10/c1-14-10-12-17(32-14)27(37)42-24-22(35)25(39-4)30(2,3)43-29(24)40-18-13-11-16-21(34)20(28(38)41-23(16)19(18)31)33-26(36)15-8-6-5-7-9-15/h5-13,22,24-25,29,32,34-35H,1-4H3,(H,33,36)/t22-,24+,25+,29+/m0/s1

> <Ligand InChI Key>
MOLANIOFWMYOSG-NNGOBPNTSA-N

> <BindingDB MonomerID>
50330299

> <BindingDB Ligand Name>
(2S,3R,4R,5R)-2-(3-benzamido-8-chloro-4-hydroxy-2-oxo-2H-chromen-7-yloxy)-4-hydroxy-5-methoxy-6,6-dimethyltetrahydro-2H-pyran-3-yl 5-methyl-1H-pyrrole-2-carboxylate::CHEMBL1275894

> <Target Name Assigned by Curator or DataSource>
DNA Gyrase Subunit B

> <Target Source Organism According to Curator or DataSource>
Escherichia coli

> <Ki (nM)>


> <IC50 (nM)>
 110

> <Kd (nM)>


> <EC50 (nM)>


> <kon (M-1-s-1)>


> <koff (s-1)>


> <pH>


> <Temp C>


> <Curation/DataSource>
ChEMBL

> <Article DOI>
10.1128/AAC.01235-07

> <PMID>
18347114

> <PubChem AID>


> <Patent Number>


> <Authors>
Anderle, C; Stieger, M; Burrell, M; Reinelt, S; Maxwell, A; Page, M; Heide, L

> <Institution>
Universit&#228;t T&#252;bingen

> <Link to Ligand in BindingDB>
http://www.bindingdb.org/bind/chemsearch/marvin/MolStructure.jsp?monomerid=50330299

> <Link to Ligand-Target Pair in BindingDB>
http://www.bindingdb.org/jsp/dbsearch/PrimarySearch_ki.jsp?energyterm=kJ/mole&tag=pol&polymerid=2630&target=DNA+Gyrase+Subunit+B&column=ki&startPg=0&Increment=50&submit=Search

> <Link to Ligand-Target Pair in BindingDB>
http://www.bindingdb.org/jsp/dbsearch/PrimarySearch_ki.jsp?energyterm=kJ/mole&tag=r21&monomerid=50330299&enzyme=DNA+Gyrase+Subunit+B&column=ki&startPg=0&Increment=50&submit=Search

> <Ligand HET ID in PDB>


> <PDB ID(s) for Ligand-Target Complex>


> <PubChem CID>
54729452

> <PubChem SID>
123109414

> <ChEBI ID of Ligand>


> <ChEMBL ID of Ligand>
CHEMBL1275894

> <DrugBank ID of Ligand>


> <IUPHAR_GRAC ID of Ligand>


> <KEGG ID of Ligand>


> <ZINC ID of Ligand>
ZINC64447924

> <Number of Protein Chains in Target (>1 implies a multichain complex)>
1

> <BindingDB Target Chain Sequence>
MSNSYDSSSIKVLKGLDAVRKRPGMYIGDTDDGTGLHHMVFEVVDNAIDEALAGHCKEII
VTIHADNSVSVQDDGRGIPTGIHPEEGVSAAEVIMTVLHAGGKFDDNSYKVSGGLHGVGV
SVVNALSQKLELVIQREGKIHRQIYEHGVPQAPLAVTGETEKTGTMVRFWPSLETFTNVT
EFEYEILAKRLRELSFLNSGVSIRLRDKRDGKEDHFHYEGGIKAFVEYLNKNKTPIHPNI
FYFSTEKDGIGVEVALQWNDGFQENIYCFTNNIPQRDGGTHLAGFRAAMTRTLNAYMDKE
GYSKKAKVSATGDDAREGLIAVVSVKVPDPKFSSQTKDKLVSSEVKSAVEQQMNELLAEY
LLENPTDAKIVVGKIIDAARAREAARRAREMTRRKGALDLAGLPGKLADCQERDPALSEL
YLVEGDSAGGSAKQGRNRKNQAILPLKGKILNVEKARFDKMLSSQEVATLITALGCGIGR
DEYNPDKLRYHSIIIMTDADVDGSHIRTLLLTFFYRQMPEIVERGHVYIAQPPLYKVKKG
KQEQYIKDDEAMDQYQISIALDGATLHTNASAPALAGEALEKLVSEYNATQKMINRMERR
YPKAMLKELIYQPTLTEADLSDEQTVTRWVNALVSELNDKEQHGSQWKFDVHTNAEQNLF
EPIVRVRTHGVDTDYPLDHEFITGGEYRRICTLGEKLRGLLEEDAFIERGERRQPVASFE
QALDWLVKESRRGLSIQRYKGLGEMNPEQLWETTMDPESRRMLRVTVKDAIAADQLFTTL
MGDAVEPRRAFIEENALKAANIDI

> <PDB ID(s) of Target Chain>
1KZN,3G7E,3NUH,4DUH,4HYP,4KFG,4PRV,4PRX,4PU9,4WUB,4WUC,4WUD,4XTJ,4ZVI,5L3J,5MMN,5MMO,5MMP,5Z4H,5Z4O,5Z9B,5Z9E,5Z9F,5Z9L,5Z9M,5Z9N,5Z9Q,6ENG,6F86,6F8J,6F94,6F96

> <UniProt (SwissProt) Recommended Name of Target Chain>
DNA gyrase subunit B

> <UniProt (SwissProt) Entry Name of Target Chain>
GYRB_ECOLI

> <UniProt (SwissProt) Primary ID of Target Chain>
P0AES6

> <UniProt (SwissProt) Secondary ID(s) of Target Chain>
O08438,P06982,Q2M811

> <UniProt (SwissProt) Alternative ID(s) of Target Chain>


> <UniProt (TrEMBL) Submitted Name of Target Chain>


> <UniProt (TrEMBL) Entry Name of Target Chain>


> <UniProt (TrEMBL) Primary ID of Target Chain>


> <UniProt (TrEMBL) Secondary ID(s) of Target Chain>


> <UniProt (TrEMBL) Alternative ID(s) of Target Chain>


$$$$

  Mrv0541 11241408262D          

 31 34  0  0  0  0            999 V2000
   11.3527    1.0750    0.0000 C   0  0  0  0  0  0  0  0  0  0  0  0
   11.3516    0.2477    0.0000 C   0  0  0  0  0  0  0  0  0  0  0  0
   12.0664   -0.1652    0.0000 C   0  0  0  0  0  0  0  0  0  0  0  0
   12.0646    1.4878    0.0000 C   0  0  0  0  0  0  0  0  0  0  0  0
   13.5713    1.3327    0.0000 N   0  0  0  0  0  0  0  0  0  0  0  0
   12.7800    1.0787    0.0000 C   0  0  0  0  0  0  0  0  0  0  0  0
   12.7781    0.2469    0.0000 N   0  0  0  0  0  0  0  0  0  0  0  0
   13.5693   -0.0105    0.0000 C   0  0  0  0  0  0  0  0  0  0  0  0
   14.0573    0.6631    0.0000 C   0  0  0  0  0  0  0  0  0  0  0  0
   10.6403    1.4872    0.0000 C   0  0  0  0  0  0  0  0  0  0  0  0
   10.6414    2.3133    0.0000 C   0  0  0  0  0  0  0  0  0  0  0  0
    9.9277    2.7256    0.0000 N   0  0  0  0  0  0  0  0  0  0  0  0
    9.2123    2.3128    0.0000 C   0  0  0  0  0  0  0  0  0  0  0  0
    9.2152    1.4836    0.0000 N   0  0  0  0  0  0  0  0  0  0  0  0
    9.9295    1.0751    0.0000 C   0  0  0  0  0  0  0  0  0  0  0  0
   12.0684   -0.9874    0.0000 C   0  0  0  0  0  0  0  0  0  0  0  0
   11.3525   -1.3997    0.0000 N   0  0  0  0  0  0  0  0  0  0  0  0
   11.3526   -2.2240    0.0000 C   0  0  0  0  0  0  0  0  0  0  0  0
   12.0679   -2.6369    0.0000 C   0  0  0  0  0  0  0  0  0  0  0  0
   12.7845   -2.2196    0.0000 C   0  0  0  0  0  0  0  0  0  0  0  0
   12.7808   -1.3967    0.0000 N   0  0  0  0  0  0  0  0  0  0  0  0
   14.8823    0.6634    0.0000 N   0  0  0  0  0  0  0  0  0  0  0  0
   15.2945    1.3780    0.0000 C   0  0  0  0  0  0  0  0  0  0  0  0
   14.8818    2.0923    0.0000 O   0  0  0  0  0  0  0  0  0  0  0  0
   16.1195    1.3784    0.0000 N   0  0  0  0  0  0  0  0  0  0  0  0
    8.4972    2.7242    0.0000 N   0  0  0  0  0  0  0  0  0  0  0  0
    8.4959    3.5492    0.0000 C   0  0  0  0  0  0  0  0  0  0  0  0
    7.7834    2.3106    0.0000 C   0  0  0  0  0  0  0  0  0  0  0  0
   16.5323    0.6641    0.0000 C   0  0  0  0  0  0  0  0  0  0  0  0
   17.3573    0.6644    0.0000 C   0  0  0  0  0  0  0  0  0  0  0  0
   10.6382   -2.6365    0.0000 C   0  0  0  0  0  0  0  0  0  0  0  0
 15 10  2  0  0  0  0
  1 10  1  0  0  0  0
  6  4  1  0  0  0  0
  5  6  2  0  0  0  0
 16 17  2  0  0  0  0
  7  8  1  0  0  0  0
 17 18  1  0  0  0  0
  8  9  2  0  0  0  0
 18 19  2  0  0  0  0
  9  5  1  0  0  0  0
 19 20  1  0  0  0  0
  4  1  2  0  0  0  0
 20 21  2  0  0  0  0
 21 16  1  0  0  0  0
  3 16  1  0  0  0  0
  6  7  1  0  0  0  0
  9 22  1  0  0  0  0
 10 11  1  0  0  0  0
 22 23  1  0  0  0  0
 23 24  2  0  0  0  0
 11 12  2  0  0  0  0
 23 25  1  0  0  0  0
  2  3  2  0  0  0  0
 13 26  1  0  0  0  0
 12 13  1  0  0  0  0
 26 27  1  0  0  0  0
  3  7  1  0  0  0  0
 26 28  1  0  0  0  0
 13 14  2  0  0  0  0
 25 29  1  0  0  0  0
  1  2  1  0  0  0  0
 29 30  1  0  0  0  0
 14 15  1  0  0  0  0
 18 31  1  0  0  0  0
M  END
> <From> 
www.bindingDB.org

> <BindingDB Reactant_set_id>
50904838

> <Ligand InChI>
InChI=1S/C21H23N9O/c1-5-22-21(31)28-17-12-30-16(19-23-7-6-13(2)26-19)8-14(9-18(30)27-17)15-10-24-20(25-11-15)29(3)4/h6-12H,5H2,1-4H3,(H2,22,28,31)

> <Ligand InChI Key>
ADEXQHKYMJSASG-UHFFFAOYSA-N

> <BindingDB MonomerID>
50378447

> <BindingDB Ligand Name>
CHEMBL577909

> <Target Name Assigned by Curator or DataSource>
DNA gyrase subunit B

> <Target Source Organism According to Curator or DataSource>
Streptococcus pneumoniae

> <Ki (nM)>


> <IC50 (nM)>
 113

> <Kd (nM)>


> <EC50 (nM)>


> <kon (M-1-s-1)>


> <koff (s-1)>


> <pH>


> <Temp C>


> <Curation/DataSource>
ChEMBL

> <Article DOI>
10.1016/j.bmcl.2009.07.141

> <PMID>
19683922

> <PubChem AID>


> <Patent Number>


> <Authors>
Starr, JT; Sciotti, RJ; Hanna, DL; Huband, MD; Mullins, LM; Cai, H; Gage, JW; Lockard, M; Rauckhorst, MR; Owen, RM; Lall, MS; Tomilo, M; Chen, H; McCurdy, SP; Barbachyn, MR

> <Institution>
Pfizer Inc.

> <Link to Ligand in BindingDB>
http://www.bindingdb.org/bind/chemsearch/marvin/MolStructure.jsp?monomerid=50378447

> <Link to Ligand-Target Pair in BindingDB>
http://www.bindingdb.org/jsp/dbsearch/PrimarySearch_ki.jsp?energyterm=kJ/mole&tag=pol&polymerid=50005944&target=DNA+gyrase+subunit+B&column=ki&startPg=0&Increment=50&submit=Search

> <Link to Ligand-Target Pair in BindingDB>
http://www.bindingdb.org/jsp/dbsearch/PrimarySearch_ki.jsp?energyterm=kJ/mole&tag=r21&monomerid=50378447&enzyme=DNA+gyrase+subunit+B&column=ki&startPg=0&Increment=50&submit=Search

> <Ligand HET ID in PDB>


> <PDB ID(s) for Ligand-Target Complex>


> <PubChem CID>
45484754

> <PubChem SID>
160857530

> <ChEBI ID of Ligand>


> <ChEMBL ID of Ligand>
CHEMBL577909

> <DrugBank ID of Ligand>


> <IUPHAR_GRAC ID of Ligand>


> <KEGG ID of Ligand>


> <ZINC ID of Ligand>
ZINC45291515

> <Number of Protein Chains in Target (>1 implies a multichain complex)>
1

> <BindingDB Target Chain Sequence>
MTEEIKNLQAQDYDASQIQVLEGLEAVRMRPGMYIGSTSKEGLHHLVWEIVDNSIDEALAGFASHIQVFIEPDDSITVVDDGRGIPVDIQEKTGRPAVETVFTVLHAGGKFGGGGYKVSGGLHGVGSSVVNALSTQLDVHVHKNGKIHYQEYRRGHVVADLEIVGDTDKTGTTVHFTPDPKIFTETTIFDFDKLNKRIQELAFLNRGLQISITDKRQGLEQTKHYHYEGGIASYVEYINENKDVIFDTPIYTDGEMDDITVEVAMQYTTGYHENVMSFANNIHTHEGGTHEQGFRTALTRVINDYARKNKLLKDNEDNLTGEDVREGLTAVISVKHPNPQFEGQTKTKLGNSEVVKITNRLFSEAFSDFLMENPQIAKRIVEKGILAAKARVAAKRAREVTRKKSGLEISNLPGKLADCSSNNPAETELFIVEGDSAGGSAKSGRNREFQAILPIRGKILNVEKASMDKILANEEIRSLFTAMGTGFGAEFDVSKARYQKLVLMTDADVDGAHIRTLLLTLIYRYMKPILEAGYVYIAQPPIYGVKVGSEIKEYIQPGADQEIKLQEALARYSEGRTKPTIQRYKGLGEMDDHQLWETTMDPEHRLMARVSVDDAAEADKIFDMLMGDRVEPRREFIEENAVYSTLDV

> <PDB ID(s) of Target Chain>
4Z2C,4Z2D,4Z2E

> <UniProt (SwissProt) Recommended Name of Target Chain>
DNA gyrase subunit B

> <UniProt (SwissProt) Entry Name of Target Chain>
GYRB_STRPN

> <UniProt (SwissProt) Primary ID of Target Chain>
P0A4L9

> <UniProt (SwissProt) Secondary ID(s) of Target Chain>
P48373

> <UniProt (SwissProt) Alternative ID(s) of Target Chain>


> <UniProt (TrEMBL) Submitted Name of Target Chain>


> <UniProt (TrEMBL) Entry Name of Target Chain>


> <UniProt (TrEMBL) Primary ID of Target Chain>


> <UniProt (TrEMBL) Secondary ID(s) of Target Chain>


> <UniProt (TrEMBL) Alternative ID(s) of Target Chain>


$$$$

  Mrv0541 11231413392D          

 47 51  0  0  0  0            999 V2000
   12.9376  -10.0507    0.0000 C   0  0  0  0  0  0  0  0  0  0  0  0
   12.2116   -9.6492    0.0000 C   0  0  1  0  0  0  0  0  0  0  0  0
   11.5049  -10.0747    0.0000 C   0  0  2  0  0  0  0  0  0  0  0  0
   11.5178  -10.9036    0.0000 C   0  0  2  0  0  0  0  0  0  0  0  0
   12.2438  -11.3051    0.0000 C   0  0  1  0  0  0  0  0  0  0  0  0
   12.9568  -10.8778    0.0000 O   0  0  0  0  0  0  0  0  0  0  0  0
   12.2581  -12.1300    0.0000 O   0  0  0  0  0  0  0  0  0  0  0  0
   12.9778  -12.5413    0.0000 C   0  0  0  0  0  0  0  0  0  0  0  0
   12.9770  -13.3659    0.0000 C   0  0  0  0  0  0  0  0  0  0  0  0
   13.6927  -12.1271    0.0000 C   0  0  0  0  0  0  0  0  0  0  0  0
   14.4071  -12.5447    0.0000 C   0  0  0  0  0  0  0  0  0  0  0  0
   14.4052  -13.3695    0.0000 C   0  0  0  0  0  0  0  0  0  0  0  0
   13.6900  -13.7810    0.0000 C   0  0  0  0  0  0  0  0  0  0  0  0
   13.6888  -14.6017    0.0000 O   0  0  0  0  0  0  0  0  0  0  0  0
   14.4012  -15.0171    0.0000 C   0  0  0  0  0  0  0  0  0  0  0  0
   15.1164  -14.6054    0.0000 C   0  0  0  0  0  0  0  0  0  0  0  0
   15.1194  -13.7786    0.0000 C   0  0  0  0  0  0  0  0  0  0  0  0
   15.8338  -13.3662    0.0000 O   0  0  0  0  0  0  0  0  0  0  0  0
   14.3988  -15.8419    0.0000 O   0  0  0  0  0  0  0  0  0  0  0  0
   15.8298  -15.0197    0.0000 N   0  0  0  0  0  0  0  0  0  0  0  0
   15.8278  -15.8447    0.0000 C   0  0  0  0  0  0  0  0  0  0  0  0
   15.1123  -16.2554    0.0000 O   0  0  0  0  0  0  0  0  0  0  0  0
   16.5412  -16.2591    0.0000 C   0  0  0  0  0  0  0  0  0  0  0  0
   16.5363  -17.0832    0.0000 C   0  0  0  0  0  0  0  0  0  0  0  0
   17.2488  -17.4974    0.0000 C   0  0  0  0  0  0  0  0  0  0  0  0
   17.9654  -17.0866    0.0000 C   0  0  0  0  0  0  0  0  0  0  0  0
   17.9647  -16.2574    0.0000 C   0  0  0  0  0  0  0  0  0  0  0  0
   17.2516  -15.8469    0.0000 C   0  0  0  0  0  0  0  0  0  0  0  0
   18.6794  -17.5000    0.0000 O   0  0  0  0  0  0  0  0  0  0  0  0
   18.6788  -15.8441    0.0000 C   0  0  0  0  0  0  0  0  0  0  0  0
   13.7652  -10.0319    0.0000 C   0  0  0  0  0  0  0  0  0  0  0  0
   12.9268   -9.2277    0.0000 C   0  0  0  0  0  0  0  0  0  0  0  0
   12.1966   -8.8243    0.0000 O   0  0  0  0  0  0  0  0  0  0  0  0
   12.9033   -8.3989    0.0000 C   0  0  0  0  0  0  0  0  0  0  0  0
   10.7835   -9.6744    0.0000 O   0  0  0  0  0  0  0  0  0  0  0  0
   10.7696   -8.8495    0.0000 C   0  0  0  0  0  0  0  0  0  0  0  0
   10.0485   -8.4489    0.0000 C   0  0  0  0  0  0  0  0  0  0  0  0
   11.4770   -8.4250    0.0000 O   0  0  0  0  0  0  0  0  0  0  0  0
   10.8105  -11.3281    0.0000 O   0  0  0  0  0  0  0  0  0  0  0  0
    9.8127   -7.6554    0.0000 C   0  0  0  0  0  0  0  0  0  0  0  0
    8.9880   -7.6323    0.0000 C   0  0  0  0  0  0  0  0  0  0  0  0
    8.7113   -8.4095    0.0000 C   0  0  0  0  0  0  0  0  0  0  0  0
    9.3649   -8.9128    0.0000 N   0  0  0  0  0  0  0  0  0  0  0  0
    7.9933   -8.8137    0.0000 C   0  0  0  0  0  0  0  0  0  0  0  0
   12.2617  -13.7767    0.0000 C   0  0  0  0  0  0  0  0  0  0  0  0
   19.3937  -16.2559    0.0000 C   0  0  0  0  0  0  0  0  0  0  0  0
   20.1077  -15.8427    0.0000 C   0  0  0  0  0  0  0  0  0  0  0  0
 11 10  1  0  0  0  0
 21 23  1  0  0  0  0
 11 12  2  0  0  0  0
 23 24  2  0  0  0  0
  3  4  1  0  0  0  0
 24 25  1  0  0  0  0
 12 13  1  0  0  0  0
 25 26  2  0  0  0  0
  4  5  1  0  0  0  0
 26 27  1  0  0  0  0
  5  6  1  0  0  0  0
 27 28  2  0  0  0  0
 28 23  1  0  0  0  0
 26 29  1  0  0  0  0
  5  7  1  1  0  0  0
 27 30  1  0  0  0  0
  2  1  1  0  0  0  0
  1 31  1  0  0  0  0
  7  8  1  0  0  0  0
  1 32  1  0  0  0  0
 12 17  1  0  0  0  0
  2 33  1  1  0  0  0
 13 14  1  0  0  0  0
 33 34  1  0  0  0  0
 14 15  1  0  0  0  0
  3 35  1  6  0  0  0
 15 16  1  0  0  0  0
 35 36  1  0  0  0  0
 16 17  2  0  0  0  0
 36 37  1  0  0  0  0
  8  9  1  0  0  0  0
 36 38  2  0  0  0  0
 17 18  1  0  0  0  0
  4 39  1  6  0  0  0
 37 40  2  0  0  0  0
  1  6  1  0  0  0  0
 15 19  2  0  0  0  0
  3  2  1  0  0  0  0
 16 20  1  0  0  0  0
 40 41  1  0  0  0  0
 41 42  2  0  0  0  0
 42 43  1  0  0  0  0
 43 37  1  0  0  0  0
  8 10  2  0  0  0  0
 42 44  1  0  0  0  0
 20 21  1  0  0  0  0
  9 45  1  0  0  0  0
  9 13  2  0  0  0  0
 30 46  1  0  0  0  0
 21 22  2  0  0  0  0
 46 47  2  0  0  0  0
M  END
> <From> 
www.bindingDB.org

> <BindingDB Reactant_set_id>
50607681

> <Ligand InChI>
InChI=1S/C34H36N2O11/c1-7-8-18-15-19(10-13-22(18)37)30(40)36-24-25(38)20-11-14-23(17(3)27(20)45-32(24)42)44-33-26(39)28(29(43-6)34(4,5)47-33)46-31(41)21-12-9-16(2)35-21/h7,9-15,26,28-29,33,35,37-39H,1,8H2,2-6H3,(H,36,40)/t26-,28+,29-,33-/m1/s1

> <Ligand InChI Key>
MMMULBZZNWSVGW-ZQZBKPNISA-N

> <BindingDB MonomerID>
50330310

> <BindingDB Ligand Name>
(3R,4S,5R,6R)-6-(3-(3-allyl-4-hydroxybenzamido)-4-hydroxy-8-methyl-2-oxo-2H-chromen-7-yloxy)-5-hydroxy-3-methoxy-2,2-dimethyltetrahydro-2H-pyran-4-yl 5-methyl-1H-pyrrole-2-carboxylate::CHEMBL1275883

> <Target Name Assigned by Curator or DataSource>
DNA Gyrase Subunit B

> <Target Source Organism According to Curator or DataSource>
Escherichia coli

> <Ki (nM)>


> <IC50 (nM)>
 116

> <Kd (nM)>


> <EC50 (nM)>


> <kon (M-1-s-1)>


> <koff (s-1)>


> <pH>


> <Temp C>


> <Curation/DataSource>
ChEMBL

> <Article DOI>
10.1128/AAC.01235-07

> <PMID>
18347114

> <PubChem AID>


> <Patent Number>


> <Authors>
Anderle, C; Stieger, M; Burrell, M; Reinelt, S; Maxwell, A; Page, M; Heide, L

> <Institution>
Universit&#228;t T&#252;bingen

> <Link to Ligand in BindingDB>
http://www.bindingdb.org/bind/chemsearch/marvin/MolStructure.jsp?monomerid=50330310

> <Link to Ligand-Target Pair in BindingDB>
http://www.bindingdb.org/jsp/dbsearch/PrimarySearch_ki.jsp?energyterm=kJ/mole&tag=pol&polymerid=2630&target=DNA+Gyrase+Subunit+B&column=ki&startPg=0&Increment=50&submit=Search

> <Link to Ligand-Target Pair in BindingDB>
http://www.bindingdb.org/jsp/dbsearch/PrimarySearch_ki.jsp?energyterm=kJ/mole&tag=r21&monomerid=50330310&enzyme=DNA+Gyrase+Subunit+B&column=ki&startPg=0&Increment=50&submit=Search

> <Ligand HET ID in PDB>


> <PDB ID(s) for Ligand-Target Complex>


> <PubChem CID>
54729451

> <PubChem SID>
123109425

> <ChEBI ID of Ligand>


> <ChEMBL ID of Ligand>
CHEMBL1275883

> <DrugBank ID of Ligand>


> <IUPHAR_GRAC ID of Ligand>


> <KEGG ID of Ligand>


> <ZINC ID of Ligand>
ZINC72136389

> <Number of Protein Chains in Target (>1 implies a multichain complex)>
1

> <BindingDB Target Chain Sequence>
MSNSYDSSSIKVLKGLDAVRKRPGMYIGDTDDGTGLHHMVFEVVDNAIDEALAGHCKEII
VTIHADNSVSVQDDGRGIPTGIHPEEGVSAAEVIMTVLHAGGKFDDNSYKVSGGLHGVGV
SVVNALSQKLELVIQREGKIHRQIYEHGVPQAPLAVTGETEKTGTMVRFWPSLETFTNVT
EFEYEILAKRLRELSFLNSGVSIRLRDKRDGKEDHFHYEGGIKAFVEYLNKNKTPIHPNI
FYFSTEKDGIGVEVALQWNDGFQENIYCFTNNIPQRDGGTHLAGFRAAMTRTLNAYMDKE
GYSKKAKVSATGDDAREGLIAVVSVKVPDPKFSSQTKDKLVSSEVKSAVEQQMNELLAEY
LLENPTDAKIVVGKIIDAARAREAARRAREMTRRKGALDLAGLPGKLADCQERDPALSEL
YLVEGDSAGGSAKQGRNRKNQAILPLKGKILNVEKARFDKMLSSQEVATLITALGCGIGR
DEYNPDKLRYHSIIIMTDADVDGSHIRTLLLTFFYRQMPEIVERGHVYIAQPPLYKVKKG
KQEQYIKDDEAMDQYQISIALDGATLHTNASAPALAGEALEKLVSEYNATQKMINRMERR
YPKAMLKELIYQPTLTEADLSDEQTVTRWVNALVSELNDKEQHGSQWKFDVHTNAEQNLF
EPIVRVRTHGVDTDYPLDHEFITGGEYRRICTLGEKLRGLLEEDAFIERGERRQPVASFE
QALDWLVKESRRGLSIQRYKGLGEMNPEQLWETTMDPESRRMLRVTVKDAIAADQLFTTL
MGDAVEPRRAFIEENALKAANIDI

> <PDB ID(s) of Target Chain>
1KZN,3G7E,3NUH,4DUH,4HYP,4KFG,4PRV,4PRX,4PU9,4WUB,4WUC,4WUD,4XTJ,4ZVI,5L3J,5MMN,5MMO,5MMP,5Z4H,5Z4O,5Z9B,5Z9E,5Z9F,5Z9L,5Z9M,5Z9N,5Z9Q,6ENG,6F86,6F8J,6F94,6F96

> <UniProt (SwissProt) Recommended Name of Target Chain>
DNA gyrase subunit B

> <UniProt (SwissProt) Entry Name of Target Chain>
GYRB_ECOLI

> <UniProt (SwissProt) Primary ID of Target Chain>
P0AES6

> <UniProt (SwissProt) Secondary ID(s) of Target Chain>
O08438,P06982,Q2M811

> <UniProt (SwissProt) Alternative ID(s) of Target Chain>


> <UniProt (TrEMBL) Submitted Name of Target Chain>


> <UniProt (TrEMBL) Entry Name of Target Chain>


> <UniProt (TrEMBL) Primary ID of Target Chain>


> <UniProt (TrEMBL) Secondary ID(s) of Target Chain>


> <UniProt (TrEMBL) Alternative ID(s) of Target Chain>


$$$$

  Mrv0541 11241408262D          

 30 33  0  0  0  0            999 V2000
    9.7944  -13.1041    0.0000 C   0  0  0  0  0  0  0  0  0  0  0  0
    9.7932  -13.9315    0.0000 C   0  0  0  0  0  0  0  0  0  0  0  0
   10.5081  -14.3444    0.0000 C   0  0  0  0  0  0  0  0  0  0  0  0
   10.5063  -12.6914    0.0000 C   0  0  0  0  0  0  0  0  0  0  0  0
   12.0129  -12.8465    0.0000 N   0  0  0  0  0  0  0  0  0  0  0  0
   11.2216  -13.1005    0.0000 C   0  0  0  0  0  0  0  0  0  0  0  0
   11.2198  -13.9322    0.0000 N   0  0  0  0  0  0  0  0  0  0  0  0
   12.0110  -14.1896    0.0000 C   0  0  0  0  0  0  0  0  0  0  0  0
   12.4990  -13.5161    0.0000 C   0  0  0  0  0  0  0  0  0  0  0  0
    9.0819  -12.6920    0.0000 C   0  0  0  0  0  0  0  0  0  0  0  0
    9.0831  -11.8659    0.0000 C   0  0  0  0  0  0  0  0  0  0  0  0
    8.3694  -11.4536    0.0000 N   0  0  0  0  0  0  0  0  0  0  0  0
    7.6540  -11.8663    0.0000 C   0  0  0  0  0  0  0  0  0  0  0  0
    7.6568  -12.6956    0.0000 C   0  0  0  0  0  0  0  0  0  0  0  0
    8.3712  -13.1041    0.0000 C   0  0  0  0  0  0  0  0  0  0  0  0
   10.5101  -15.1666    0.0000 C   0  0  0  0  0  0  0  0  0  0  0  0
    9.7942  -15.5789    0.0000 N   0  0  0  0  0  0  0  0  0  0  0  0
    9.7943  -16.4031    0.0000 C   0  0  0  0  0  0  0  0  0  0  0  0
   10.5095  -16.8161    0.0000 C   0  0  0  0  0  0  0  0  0  0  0  0
   11.2261  -16.3987    0.0000 C   0  0  0  0  0  0  0  0  0  0  0  0
   11.2225  -15.5759    0.0000 N   0  0  0  0  0  0  0  0  0  0  0  0
   13.3240  -13.5158    0.0000 N   0  0  0  0  0  0  0  0  0  0  0  0
   13.7362  -12.8011    0.0000 C   0  0  0  0  0  0  0  0  0  0  0  0
   13.3234  -12.0868    0.0000 O   0  0  0  0  0  0  0  0  0  0  0  0
   14.5612  -12.8008    0.0000 N   0  0  0  0  0  0  0  0  0  0  0  0
   14.9740  -13.5151    0.0000 C   0  0  0  0  0  0  0  0  0  0  0  0
   15.7990  -13.5148    0.0000 C   0  0  0  0  0  0  0  0  0  0  0  0
    6.9389  -11.4550    0.0000 O   0  0  0  0  0  0  0  0  0  0  0  0
   10.5111  -17.6411    0.0000 C   0  0  0  0  0  0  0  0  0  0  0  0
    6.2250  -11.8686    0.0000 C   0  0  0  0  0  0  0  0  0  0  0  0
 14 15  1  0  0  0  0
 15 10  2  0  0  0  0
  1 10  1  0  0  0  0
  6  4  1  0  0  0  0
  5  6  2  0  0  0  0
 16 17  2  0  0  0  0
  7  8  1  0  0  0  0
 17 18  1  0  0  0  0
  8  9  2  0  0  0  0
 18 19  2  0  0  0  0
  9  5  1  0  0  0  0
 19 20  1  0  0  0  0
  4  1  2  0  0  0  0
 20 21  2  0  0  0  0
 21 16  1  0  0  0  0
  3 16  1  0  0  0  0
  6  7  1  0  0  0  0
  9 22  1  0  0  0  0
 10 11  1  0  0  0  0
 22 23  1  0  0  0  0
 23 24  2  0  0  0  0
 11 12  2  0  0  0  0
 23 25  1  0  0  0  0
  2  3  2  0  0  0  0
 25 26  1  0  0  0  0
 12 13  1  0  0  0  0
 26 27  1  0  0  0  0
  3  7  1  0  0  0  0
 13 28  1  0  0  0  0
 13 14  2  0  0  0  0
 19 29  1  0  0  0  0
  1  2  1  0  0  0  0
 28 30  1  0  0  0  0
M  END
> <From> 
www.bindingDB.org

> <BindingDB Reactant_set_id>
50904836

> <Ligand InChI>
InChI=1S/C21H21N7O2/c1-4-22-21(29)27-17-12-28-16(20-24-9-13(2)10-25-20)7-15(8-18(28)26-17)14-5-6-19(30-3)23-11-14/h5-12H,4H2,1-3H3,(H2,22,27,29)

> <Ligand InChI Key>
FQOKIWGLCSLEEB-UHFFFAOYSA-N

> <BindingDB MonomerID>
50378445

> <BindingDB Ligand Name>
CHEMBL565776

> <Target Name Assigned by Curator or DataSource>
DNA gyrase subunit B

> <Target Source Organism According to Curator or DataSource>
Streptococcus pneumoniae

> <Ki (nM)>


> <IC50 (nM)>
 117

> <Kd (nM)>


> <EC50 (nM)>


> <kon (M-1-s-1)>


> <koff (s-1)>


> <pH>


> <Temp C>


> <Curation/DataSource>
ChEMBL

> <Article DOI>
10.1016/j.bmcl.2009.07.141

> <PMID>
19683922

> <PubChem AID>


> <Patent Number>


> <Authors>
Starr, JT; Sciotti, RJ; Hanna, DL; Huband, MD; Mullins, LM; Cai, H; Gage, JW; Lockard, M; Rauckhorst, MR; Owen, RM; Lall, MS; Tomilo, M; Chen, H; McCurdy, SP; Barbachyn, MR

> <Institution>
Pfizer Inc.

> <Link to Ligand in BindingDB>
http://www.bindingdb.org/bind/chemsearch/marvin/MolStructure.jsp?monomerid=50378445

> <Link to Ligand-Target Pair in BindingDB>
http://www.bindingdb.org/jsp/dbsearch/PrimarySearch_ki.jsp?energyterm=kJ/mole&tag=pol&polymerid=50005944&target=DNA+gyrase+subunit+B&column=ki&startPg=0&Increment=50&submit=Search

> <Link to Ligand-Target Pair in BindingDB>
http://www.bindingdb.org/jsp/dbsearch/PrimarySearch_ki.jsp?energyterm=kJ/mole&tag=r21&monomerid=50378445&enzyme=DNA+gyrase+subunit+B&column=ki&startPg=0&Increment=50&submit=Search

> <Ligand HET ID in PDB>


> <PDB ID(s) for Ligand-Target Complex>


> <PubChem CID>
44555360

> <PubChem SID>
160857528

> <ChEBI ID of Ligand>


> <ChEMBL ID of Ligand>
CHEMBL565776

> <DrugBank ID of Ligand>


> <IUPHAR_GRAC ID of Ligand>


> <KEGG ID of Ligand>


> <ZINC ID of Ligand>
ZINC45245426

> <Number of Protein Chains in Target (>1 implies a multichain complex)>
1

> <BindingDB Target Chain Sequence>
MTEEIKNLQAQDYDASQIQVLEGLEAVRMRPGMYIGSTSKEGLHHLVWEIVDNSIDEALAGFASHIQVFIEPDDSITVVDDGRGIPVDIQEKTGRPAVETVFTVLHAGGKFGGGGYKVSGGLHGVGSSVVNALSTQLDVHVHKNGKIHYQEYRRGHVVADLEIVGDTDKTGTTVHFTPDPKIFTETTIFDFDKLNKRIQELAFLNRGLQISITDKRQGLEQTKHYHYEGGIASYVEYINENKDVIFDTPIYTDGEMDDITVEVAMQYTTGYHENVMSFANNIHTHEGGTHEQGFRTALTRVINDYARKNKLLKDNEDNLTGEDVREGLTAVISVKHPNPQFEGQTKTKLGNSEVVKITNRLFSEAFSDFLMENPQIAKRIVEKGILAAKARVAAKRAREVTRKKSGLEISNLPGKLADCSSNNPAETELFIVEGDSAGGSAKSGRNREFQAILPIRGKILNVEKASMDKILANEEIRSLFTAMGTGFGAEFDVSKARYQKLVLMTDADVDGAHIRTLLLTLIYRYMKPILEAGYVYIAQPPIYGVKVGSEIKEYIQPGADQEIKLQEALARYSEGRTKPTIQRYKGLGEMDDHQLWETTMDPEHRLMARVSVDDAAEADKIFDMLMGDRVEPRREFIEENAVYSTLDV

> <PDB ID(s) of Target Chain>
4Z2C,4Z2D,4Z2E

> <UniProt (SwissProt) Recommended Name of Target Chain>
DNA gyrase subunit B

> <UniProt (SwissProt) Entry Name of Target Chain>
GYRB_STRPN

> <UniProt (SwissProt) Primary ID of Target Chain>
P0A4L9

> <UniProt (SwissProt) Secondary ID(s) of Target Chain>
P48373

> <UniProt (SwissProt) Alternative ID(s) of Target Chain>


> <UniProt (TrEMBL) Submitted Name of Target Chain>


> <UniProt (TrEMBL) Entry Name of Target Chain>


> <UniProt (TrEMBL) Primary ID of Target Chain>


> <UniProt (TrEMBL) Secondary ID(s) of Target Chain>


> <UniProt (TrEMBL) Alternative ID(s) of Target Chain>


$$$$

  SciTegic12211709092D

 26 28  0  0  0  0            999 V2000
   10.1998  -11.1426    0.0000 O   0  0
    9.7871  -10.4335    0.0000 C   0  0
    8.9699  -10.4335    0.0000 C   0  0
    8.4856   -9.7703    0.0000 C   0  0
    7.7084  -10.0249    0.0000 C   0  0
    7.0452   -9.5407    0.0000 Cl  0  0
    7.7084  -10.8421    0.0000 C   0  0
    7.0452  -11.3264    0.0000 Cl  0  0
    8.4856  -11.0968    0.0000 N   0  0
   10.1998   -9.7244    0.0000 N   0  0
   11.0170   -9.7244    0.0000 C   0  0
   11.5013  -10.3877    0.0000 N   0  0
   12.2785  -10.1330    0.0000 C   0  0
   12.9917  -10.5416    0.0000 C   0  0
   13.7008  -10.1330    0.0000 C   0  0
   13.7008   -9.3117    0.0000 C   0  0
   14.4099   -8.9031    0.0000 N   0  0
   15.1190   -9.3117    0.0000 C   0  0
   15.1190  -10.1330    0.0000 C   0  0
   15.8281  -10.5416    0.0000 C   0  0
   16.5413  -10.1330    0.0000 O   0  0
   15.8281  -11.3629    0.0000 O   0  0
   15.8281   -8.9031    0.0000 O   0  0
   12.9917   -8.9031    0.0000 C   0  0
   12.2785   -9.3117    0.0000 C   0  0
   11.5013   -9.0612    0.0000 S   0  0
  1  2  2  0
  2  3  1  0
  3  4  2  0
  4  5  1  0
  5  6  1  0
  5  7  2  0
  7  8  1  0
  7  9  1  0
  3  9  1  0
  2 10  1  0
 10 11  1  0
 11 12  2  0
 12 13  1  0
 13 14  2  0
 14 15  1  0
 15 16  2  0
 16 17  1  0
 17 18  1  0
 18 19  1  0
 19 20  1  0
 20 21  1  0
 20 22  2  0
 18 23  2  0
 16 24  1  0
 24 25  2  0
 13 25  1  0
 25 26  1  0
 11 26  1  0
M  END
> <From> 
www.bindingDB.org

> <BindingDB Reactant_set_id>
50524140

> <Ligand InChI>
InChI=1S/C15H10Cl2N4O4S/c16-7-4-9(19-13(7)17)14(25)21-15-20-8-2-1-6(3-10(8)26-15)18-11(22)5-12(23)24/h1-4,19H,5H2,(H,18,22)(H,23,24)(H,20,21,25)

> <Ligand InChI Key>
MEQWWRWUGFYEES-UHFFFAOYSA-N

> <BindingDB MonomerID>
50198323

> <BindingDB Ligand Name>
CHEMBL3917118

> <Target Name Assigned by Curator or DataSource>
DNA Gyrase Subunit B

> <Target Source Organism According to Curator or DataSource>
Escherichia coli

> <Ki (nM)>


> <IC50 (nM)>
 120

> <Kd (nM)>


> <EC50 (nM)>


> <kon (M-1-s-1)>


> <koff (s-1)>


> <pH>


> <Temp C>


> <Curation/DataSource>
ChEMBL

> <Article DOI>
10.1021/acs.jmedchem.6b00864

> <PMID>
27541007

> <PubChem AID>


> <Patent Number>


> <Authors>
Gjorgjieva, M; Tomaic, T; Barancokova, M; Katsamakas, S; Ila, J; Tammela, P; Peterlin Maic, L; Kikelj, D

> <Institution>
University of Ljubljana

> <Link to Ligand in BindingDB>
http://www.bindingdb.org/bind/chemsearch/marvin/MolStructure.jsp?monomerid=50198323

> <Link to Ligand-Target Pair in BindingDB>
http://www.bindingdb.org/jsp/dbsearch/PrimarySearch_ki.jsp?energyterm=kJ/mole&tag=pol&polymerid=2630&target=DNA+Gyrase+Subunit+B&column=ki&startPg=0&Increment=50&submit=Search

> <Link to Ligand-Target Pair in BindingDB>
http://www.bindingdb.org/jsp/dbsearch/PrimarySearch_ki.jsp?energyterm=kJ/mole&tag=r21&monomerid=50198323&enzyme=DNA+Gyrase+Subunit+B&column=ki&startPg=0&Increment=50&submit=Search

> <Ligand HET ID in PDB>


> <PDB ID(s) for Ligand-Target Complex>


> <PubChem CID>
134142801

> <PubChem SID>
375978207

> <ChEBI ID of Ligand>


> <ChEMBL ID of Ligand>


> <DrugBank ID of Ligand>


> <IUPHAR_GRAC ID of Ligand>


> <KEGG ID of Ligand>


> <ZINC ID of Ligand>


> <Number of Protein Chains in Target (>1 implies a multichain complex)>
1

> <BindingDB Target Chain Sequence>
MSNSYDSSSIKVLKGLDAVRKRPGMYIGDTDDGTGLHHMVFEVVDNAIDEALAGHCKEII
VTIHADNSVSVQDDGRGIPTGIHPEEGVSAAEVIMTVLHAGGKFDDNSYKVSGGLHGVGV
SVVNALSQKLELVIQREGKIHRQIYEHGVPQAPLAVTGETEKTGTMVRFWPSLETFTNVT
EFEYEILAKRLRELSFLNSGVSIRLRDKRDGKEDHFHYEGGIKAFVEYLNKNKTPIHPNI
FYFSTEKDGIGVEVALQWNDGFQENIYCFTNNIPQRDGGTHLAGFRAAMTRTLNAYMDKE
GYSKKAKVSATGDDAREGLIAVVSVKVPDPKFSSQTKDKLVSSEVKSAVEQQMNELLAEY
LLENPTDAKIVVGKIIDAARAREAARRAREMTRRKGALDLAGLPGKLADCQERDPALSEL
YLVEGDSAGGSAKQGRNRKNQAILPLKGKILNVEKARFDKMLSSQEVATLITALGCGIGR
DEYNPDKLRYHSIIIMTDADVDGSHIRTLLLTFFYRQMPEIVERGHVYIAQPPLYKVKKG
KQEQYIKDDEAMDQYQISIALDGATLHTNASAPALAGEALEKLVSEYNATQKMINRMERR
YPKAMLKELIYQPTLTEADLSDEQTVTRWVNALVSELNDKEQHGSQWKFDVHTNAEQNLF
EPIVRVRTHGVDTDYPLDHEFITGGEYRRICTLGEKLRGLLEEDAFIERGERRQPVASFE
QALDWLVKESRRGLSIQRYKGLGEMNPEQLWETTMDPESRRMLRVTVKDAIAADQLFTTL
MGDAVEPRRAFIEENALKAANIDI

> <PDB ID(s) of Target Chain>
1KZN,3G7E,3NUH,4DUH,4HYP,4KFG,4PRV,4PRX,4PU9,4WUB,4WUC,4WUD,4XTJ,4ZVI,5L3J,5MMN,5MMO,5MMP,5Z4H,5Z4O,5Z9B,5Z9E,5Z9F,5Z9L,5Z9M,5Z9N,5Z9Q,6ENG,6F86,6F8J,6F94,6F96

> <UniProt (SwissProt) Recommended Name of Target Chain>
DNA gyrase subunit B

> <UniProt (SwissProt) Entry Name of Target Chain>
GYRB_ECOLI

> <UniProt (SwissProt) Primary ID of Target Chain>
P0AES6

> <UniProt (SwissProt) Secondary ID(s) of Target Chain>
O08438,P06982,Q2M811

> <UniProt (SwissProt) Alternative ID(s) of Target Chain>


> <UniProt (TrEMBL) Submitted Name of Target Chain>


> <UniProt (TrEMBL) Entry Name of Target Chain>


> <UniProt (TrEMBL) Primary ID of Target Chain>


> <UniProt (TrEMBL) Secondary ID(s) of Target Chain>


> <UniProt (TrEMBL) Alternative ID(s) of Target Chain>


$$$$

  Mrv0541 11231413392D          

 45 49  0  0  0  0            999 V2000
   -0.0515  -20.5141    0.0000 C   0  0  0  0  0  0  0  0  0  0  0  0
   -0.7774  -20.1126    0.0000 C   0  0  1  0  0  0  0  0  0  0  0  0
   -1.4841  -20.5381    0.0000 C   0  0  2  0  0  0  0  0  0  0  0  0
   -1.4712  -21.3670    0.0000 C   0  0  2  0  0  0  0  0  0  0  0  0
   -0.7453  -21.7685    0.0000 C   0  0  1  0  0  0  0  0  0  0  0  0
   -0.0323  -21.3412    0.0000 O   0  0  0  0  0  0  0  0  0  0  0  0
   -0.7310  -22.5934    0.0000 O   0  0  0  0  0  0  0  0  0  0  0  0
   -0.0113  -23.0047    0.0000 C   0  0  0  0  0  0  0  0  0  0  0  0
   -0.0120  -23.8292    0.0000 C   0  0  0  0  0  0  0  0  0  0  0  0
    0.7035  -22.5904    0.0000 C   0  0  0  0  0  0  0  0  0  0  0  0
    1.4181  -23.0081    0.0000 C   0  0  0  0  0  0  0  0  0  0  0  0
    1.4162  -23.8328    0.0000 C   0  0  0  0  0  0  0  0  0  0  0  0
    0.7009  -24.2444    0.0000 C   0  0  0  0  0  0  0  0  0  0  0  0
    0.6997  -25.0650    0.0000 O   0  0  0  0  0  0  0  0  0  0  0  0
    1.4120  -25.4804    0.0000 C   0  0  0  0  0  0  0  0  0  0  0  0
    2.1274  -25.0688    0.0000 C   0  0  0  0  0  0  0  0  0  0  0  0
    2.1302  -24.2419    0.0000 C   0  0  0  0  0  0  0  0  0  0  0  0
    2.8448  -23.8295    0.0000 O   0  0  0  0  0  0  0  0  0  0  0  0
    1.4097  -26.3053    0.0000 O   0  0  0  0  0  0  0  0  0  0  0  0
    2.8408  -25.4830    0.0000 N   0  0  0  0  0  0  0  0  0  0  0  0
    2.8387  -26.3080    0.0000 C   0  0  0  0  0  0  0  0  0  0  0  0
    2.1232  -26.7187    0.0000 O   0  0  0  0  0  0  0  0  0  0  0  0
    3.5522  -26.7224    0.0000 C   0  0  0  0  0  0  0  0  0  0  0  0
    3.5472  -27.5465    0.0000 C   0  0  0  0  0  0  0  0  0  0  0  0
    4.2598  -27.9607    0.0000 C   0  0  0  0  0  0  0  0  0  0  0  0
    4.9762  -27.5499    0.0000 C   0  0  0  0  0  0  0  0  0  0  0  0
    4.9756  -26.7207    0.0000 C   0  0  0  0  0  0  0  0  0  0  0  0
    4.2625  -26.3102    0.0000 C   0  0  0  0  0  0  0  0  0  0  0  0
    5.6902  -27.9633    0.0000 O   0  0  0  0  0  0  0  0  0  0  0  0
    5.6897  -26.3075    0.0000 C   0  0  0  0  0  0  0  0  0  0  0  0
    0.7760  -20.4953    0.0000 C   0  0  0  0  0  0  0  0  0  0  0  0
   -0.0623  -19.6911    0.0000 C   0  0  0  0  0  0  0  0  0  0  0  0
   -0.7924  -19.2877    0.0000 O   0  0  0  0  0  0  0  0  0  0  0  0
   -0.0857  -18.8623    0.0000 C   0  0  0  0  0  0  0  0  0  0  0  0
   -2.2055  -20.1378    0.0000 O   0  0  0  0  0  0  0  0  0  0  0  0
   -2.2194  -19.3129    0.0000 C   0  0  0  0  0  0  0  0  0  0  0  0
   -2.9405  -18.9123    0.0000 C   0  0  0  0  0  0  0  0  0  0  0  0
   -1.5121  -18.8885    0.0000 O   0  0  0  0  0  0  0  0  0  0  0  0
   -2.1786  -21.7915    0.0000 O   0  0  0  0  0  0  0  0  0  0  0  0
    4.2572  -28.7857    0.0000 C   0  0  0  0  0  0  0  0  0  0  0  0
   -3.1763  -18.1188    0.0000 C   0  0  0  0  0  0  0  0  0  0  0  0
   -4.0009  -18.0957    0.0000 C   0  0  0  0  0  0  0  0  0  0  0  0
   -4.2777  -18.8729    0.0000 C   0  0  0  0  0  0  0  0  0  0  0  0
   -3.6241  -19.3762    0.0000 N   0  0  0  0  0  0  0  0  0  0  0  0
   -4.9958  -19.2771    0.0000 C   0  0  0  0  0  0  0  0  0  0  0  0
  9 13  2  0  0  0  0
 21 22  2  0  0  0  0
 11 10  1  0  0  0  0
 21 23  1  0  0  0  0
 11 12  2  0  0  0  0
 23 24  2  0  0  0  0
  3  4  1  0  0  0  0
 24 25  1  0  0  0  0
 12 13  1  0  0  0  0
 25 26  2  0  0  0  0
  4  5  1  0  0  0  0
 26 27  1  0  0  0  0
  5  6  1  0  0  0  0
 27 28  2  0  0  0  0
 28 23  1  0  0  0  0
 26 29  1  0  0  0  0
  5  7  1  1  0  0  0
 27 30  1  0  0  0  0
  2  1  1  0  0  0  0
  1 31  1  0  0  0  0
  7  8  1  0  0  0  0
  1 32  1  0  0  0  0
 12 17  1  0  0  0  0
  2 33  1  1  0  0  0
 13 14  1  0  0  0  0
 33 34  1  0  0  0  0
 14 15  1  0  0  0  0
  3 35  1  6  0  0  0
 15 16  1  0  0  0  0
 35 36  1  0  0  0  0
 16 17  2  0  0  0  0
 36 37  1  0  0  0  0
  8  9  1  0  0  0  0
 36 38  2  0  0  0  0
 17 18  1  0  0  0  0
  4 39  1  6  0  0  0
  1  6  1  0  0  0  0
 25 40  1  0  0  0  0
 37 41  2  0  0  0  0
 15 19  2  0  0  0  0
  3  2  1  0  0  0  0
 16 20  1  0  0  0  0
  8 10  2  0  0  0  0
 41 42  1  0  0  0  0
 42 43  2  0  0  0  0
 43 44  1  0  0  0  0
 44 37  1  0  0  0  0
 20 21  1  0  0  0  0
 43 45  1  0  0  0  0
M  END
> <From> 
www.bindingDB.org

> <BindingDB Reactant_set_id>
50607696

> <Ligand InChI>
InChI=1S/C32H34N2O11/c1-14-11-17(12-15(2)23(14)35)28(38)34-22-24(36)19-9-8-18(13-21(19)43-30(22)40)42-31-25(37)26(27(41-6)32(4,5)45-31)44-29(39)20-10-7-16(3)33-20/h7-13,25-27,31,33,35-37H,1-6H3,(H,34,38)/t25-,26+,27-,31-/m1/s1

> <Ligand InChI Key>
HCJJVFGHYYFOIL-KUYWTNKVSA-N

> <BindingDB MonomerID>
50330303

> <BindingDB Ligand Name>
(3R,4S,5R,6R)-5-hydroxy-6-(4-hydroxy-3-(4-hydroxy-3,5-dimethylbenzamido)-2-oxo-2H-chromen-7-yloxy)-3-methoxy-2,2-dimethyltetrahydro-2H-pyran-4-yl 5-methyl-1H-pyrrole-2-carboxylate::CHEMBL1275890

> <Target Name Assigned by Curator or DataSource>
DNA Gyrase Subunit B

> <Target Source Organism According to Curator or DataSource>
Escherichia coli

> <Ki (nM)>


> <IC50 (nM)>
 120

> <Kd (nM)>


> <EC50 (nM)>


> <kon (M-1-s-1)>


> <koff (s-1)>


> <pH>


> <Temp C>


> <Curation/DataSource>
ChEMBL

> <Article DOI>
10.1128/AAC.01235-07

> <PMID>
18347114

> <PubChem AID>


> <Patent Number>


> <Authors>
Anderle, C; Stieger, M; Burrell, M; Reinelt, S; Maxwell, A; Page, M; Heide, L

> <Institution>
Universit&#228;t T&#252;bingen

> <Link to Ligand in BindingDB>
http://www.bindingdb.org/bind/chemsearch/marvin/MolStructure.jsp?monomerid=50330303

> <Link to Ligand-Target Pair in BindingDB>
http://www.bindingdb.org/jsp/dbsearch/PrimarySearch_ki.jsp?energyterm=kJ/mole&tag=pol&polymerid=2630&target=DNA+Gyrase+Subunit+B&column=ki&startPg=0&Increment=50&submit=Search

> <Link to Ligand-Target Pair in BindingDB>
http://www.bindingdb.org/jsp/dbsearch/PrimarySearch_ki.jsp?energyterm=kJ/mole&tag=r21&monomerid=50330303&enzyme=DNA+Gyrase+Subunit+B&column=ki&startPg=0&Increment=50&submit=Search

> <Ligand HET ID in PDB>


> <PDB ID(s) for Ligand-Target Complex>


> <PubChem CID>
54732410

> <PubChem SID>
123109418

> <ChEBI ID of Ligand>


> <ChEMBL ID of Ligand>
CHEMBL1275890

> <DrugBank ID of Ligand>


> <IUPHAR_GRAC ID of Ligand>


> <KEGG ID of Ligand>


> <ZINC ID of Ligand>
ZINC64454182

> <Number of Protein Chains in Target (>1 implies a multichain complex)>
1

> <BindingDB Target Chain Sequence>
MSNSYDSSSIKVLKGLDAVRKRPGMYIGDTDDGTGLHHMVFEVVDNAIDEALAGHCKEII
VTIHADNSVSVQDDGRGIPTGIHPEEGVSAAEVIMTVLHAGGKFDDNSYKVSGGLHGVGV
SVVNALSQKLELVIQREGKIHRQIYEHGVPQAPLAVTGETEKTGTMVRFWPSLETFTNVT
EFEYEILAKRLRELSFLNSGVSIRLRDKRDGKEDHFHYEGGIKAFVEYLNKNKTPIHPNI
FYFSTEKDGIGVEVALQWNDGFQENIYCFTNNIPQRDGGTHLAGFRAAMTRTLNAYMDKE
GYSKKAKVSATGDDAREGLIAVVSVKVPDPKFSSQTKDKLVSSEVKSAVEQQMNELLAEY
LLENPTDAKIVVGKIIDAARAREAARRAREMTRRKGALDLAGLPGKLADCQERDPALSEL
YLVEGDSAGGSAKQGRNRKNQAILPLKGKILNVEKARFDKMLSSQEVATLITALGCGIGR
DEYNPDKLRYHSIIIMTDADVDGSHIRTLLLTFFYRQMPEIVERGHVYIAQPPLYKVKKG
KQEQYIKDDEAMDQYQISIALDGATLHTNASAPALAGEALEKLVSEYNATQKMINRMERR
YPKAMLKELIYQPTLTEADLSDEQTVTRWVNALVSELNDKEQHGSQWKFDVHTNAEQNLF
EPIVRVRTHGVDTDYPLDHEFITGGEYRRICTLGEKLRGLLEEDAFIERGERRQPVASFE
QALDWLVKESRRGLSIQRYKGLGEMNPEQLWETTMDPESRRMLRVTVKDAIAADQLFTTL
MGDAVEPRRAFIEENALKAANIDI

> <PDB ID(s) of Target Chain>
1KZN,3G7E,3NUH,4DUH,4HYP,4KFG,4PRV,4PRX,4PU9,4WUB,4WUC,4WUD,4XTJ,4ZVI,5L3J,5MMN,5MMO,5MMP,5Z4H,5Z4O,5Z9B,5Z9E,5Z9F,5Z9L,5Z9M,5Z9N,5Z9Q,6ENG,6F86,6F8J,6F94,6F96

> <UniProt (SwissProt) Recommended Name of Target Chain>
DNA gyrase subunit B

> <UniProt (SwissProt) Entry Name of Target Chain>
GYRB_ECOLI

> <UniProt (SwissProt) Primary ID of Target Chain>
P0AES6

> <UniProt (SwissProt) Secondary ID(s) of Target Chain>
O08438,P06982,Q2M811

> <UniProt (SwissProt) Alternative ID(s) of Target Chain>


> <UniProt (TrEMBL) Submitted Name of Target Chain>


> <UniProt (TrEMBL) Entry Name of Target Chain>


> <UniProt (TrEMBL) Primary ID of Target Chain>


> <UniProt (TrEMBL) Secondary ID(s) of Target Chain>


> <UniProt (TrEMBL) Alternative ID(s) of Target Chain>


$$$$

  Mrv0541 11231413392D          

 46 50  0  0  0  0            999 V2000
   -0.0147    1.1829    0.0000 C   0  0  0  0  0  0  0  0  0  0  0  0
   -0.7407    1.5844    0.0000 C   0  0  1  0  0  0  0  0  0  0  0  0
   -1.4474    1.1589    0.0000 C   0  0  2  0  0  0  0  0  0  0  0  0
   -1.4346    0.3300    0.0000 C   0  0  2  0  0  0  0  0  0  0  0  0
   -0.7086   -0.0715    0.0000 C   0  0  1  0  0  0  0  0  0  0  0  0
    0.0044    0.3558    0.0000 O   0  0  0  0  0  0  0  0  0  0  0  0
   -0.6943   -0.8964    0.0000 O   0  0  0  0  0  0  0  0  0  0  0  0
    0.0254   -1.3076    0.0000 C   0  0  0  0  0  0  0  0  0  0  0  0
    0.0246   -2.1322    0.0000 C   0  0  0  0  0  0  0  0  0  0  0  0
    0.7403   -0.8934    0.0000 C   0  0  0  0  0  0  0  0  0  0  0  0
    1.4547   -1.3110    0.0000 C   0  0  0  0  0  0  0  0  0  0  0  0
    1.4528   -2.1358    0.0000 C   0  0  0  0  0  0  0  0  0  0  0  0
    0.7376   -2.5473    0.0000 C   0  0  0  0  0  0  0  0  0  0  0  0
    0.7364   -3.3680    0.0000 O   0  0  0  0  0  0  0  0  0  0  0  0
    1.4488   -3.7833    0.0000 C   0  0  0  0  0  0  0  0  0  0  0  0
    2.1640   -3.3717    0.0000 C   0  0  0  0  0  0  0  0  0  0  0  0
    2.1669   -2.5449    0.0000 C   0  0  0  0  0  0  0  0  0  0  0  0
    2.8814   -2.1325    0.0000 O   0  0  0  0  0  0  0  0  0  0  0  0
    1.4463   -4.6082    0.0000 O   0  0  0  0  0  0  0  0  0  0  0  0
    2.8774   -3.7860    0.0000 N   0  0  0  0  0  0  0  0  0  0  0  0
    2.8753   -4.6109    0.0000 C   0  0  0  0  0  0  0  0  0  0  0  0
    2.1599   -5.0217    0.0000 O   0  0  0  0  0  0  0  0  0  0  0  0
    3.5887   -5.0253    0.0000 C   0  0  0  0  0  0  0  0  0  0  0  0
    3.5838   -5.8494    0.0000 C   0  0  0  0  0  0  0  0  0  0  0  0
    4.2963   -6.2636    0.0000 C   0  0  0  0  0  0  0  0  0  0  0  0
    5.0129   -5.8528    0.0000 C   0  0  0  0  0  0  0  0  0  0  0  0
    5.0123   -5.0236    0.0000 C   0  0  0  0  0  0  0  0  0  0  0  0
    4.2991   -4.6131    0.0000 C   0  0  0  0  0  0  0  0  0  0  0  0
    5.7268   -6.2662    0.0000 O   0  0  0  0  0  0  0  0  0  0  0  0
    0.8128    1.2017    0.0000 C   0  0  0  0  0  0  0  0  0  0  0  0
   -0.0256    2.0059    0.0000 C   0  0  0  0  0  0  0  0  0  0  0  0
   -0.7558    2.4092    0.0000 O   0  0  0  0  0  0  0  0  0  0  0  0
   -0.0491    2.8347    0.0000 C   0  0  0  0  0  0  0  0  0  0  0  0
   -2.1688    1.5592    0.0000 O   0  0  0  0  0  0  0  0  0  0  0  0
   -2.1828    2.3841    0.0000 C   0  0  0  0  0  0  0  0  0  0  0  0
   -2.9038    2.7847    0.0000 C   0  0  0  0  0  0  0  0  0  0  0  0
   -1.4754    2.8085    0.0000 O   0  0  0  0  0  0  0  0  0  0  0  0
   -2.1418   -0.0945    0.0000 O   0  0  0  0  0  0  0  0  0  0  0  0
   -3.1396    3.5782    0.0000 C   0  0  0  0  0  0  0  0  0  0  0  0
   -3.9643    3.6013    0.0000 C   0  0  0  0  0  0  0  0  0  0  0  0
   -4.2410    2.8240    0.0000 C   0  0  0  0  0  0  0  0  0  0  0  0
   -3.5874    2.3208    0.0000 N   0  0  0  0  0  0  0  0  0  0  0  0
   -4.9590    2.4199    0.0000 C   0  0  0  0  0  0  0  0  0  0  0  0
   -0.6907   -2.5430    0.0000 Cl  0  0  0  0  0  0  0  0  0  0  0  0
    5.7263   -4.6104    0.0000 O   0  0  0  0  0  0  0  0  0  0  0  0
    6.4412   -5.0221    0.0000 C   0  0  0  0  0  0  0  0  0  0  0  0
 21 22  2  0  0  0  0
 11 10  1  0  0  0  0
 21 23  1  0  0  0  0
 11 12  2  0  0  0  0
 23 24  2  0  0  0  0
  3  4  1  0  0  0  0
 24 25  1  0  0  0  0
 12 13  1  0  0  0  0
 25 26  2  0  0  0  0
  4  5  1  0  0  0  0
 26 27  1  0  0  0  0
  5  6  1  0  0  0  0
 27 28  2  0  0  0  0
 28 23  1  0  0  0  0
 26 29  1  0  0  0  0
  5  7  1  1  0  0  0
  1 30  1  0  0  0  0
  2  1  1  0  0  0  0
  1 31  1  0  0  0  0
  7  8  1  0  0  0  0
  2 32  1  1  0  0  0
 12 17  1  0  0  0  0
 32 33  1  0  0  0  0
 13 14  1  0  0  0  0
  3 34  1  6  0  0  0
 14 15  1  0  0  0  0
 34 35  1  0  0  0  0
 15 16  1  0  0  0  0
 35 36  1  0  0  0  0
 16 17  2  0  0  0  0
 35 37  2  0  0  0  0
  8  9  1  0  0  0  0
  4 38  1  6  0  0  0
 36 39  2  0  0  0  0
 17 18  1  0  0  0  0
  1  6  1  0  0  0  0
 15 19  2  0  0  0  0
  3  2  1  0  0  0  0
 39 40  1  0  0  0  0
 40 41  2  0  0  0  0
 41 42  1  0  0  0  0
 42 36  1  0  0  0  0
 16 20  1  0  0  0  0
 41 43  1  0  0  0  0
  8 10  2  0  0  0  0
  9 44  1  0  0  0  0
 20 21  1  0  0  0  0
 27 45  1  0  0  0  0
  9 13  2  0  0  0  0
 45 46  1  0  0  0  0
M  END
> <From> 
www.bindingDB.org

> <BindingDB Reactant_set_id>
50607680

> <Ligand InChI>
InChI=1S/C31H31ClN2O12/c1-13-6-9-16(33-13)28(39)45-25-23(37)30(46-31(2,3)26(25)42-5)43-18-11-8-15-22(36)21(29(40)44-24(15)20(18)32)34-27(38)14-7-10-17(35)19(12-14)41-4/h6-12,23,25-26,30,33,35-37H,1-5H3,(H,34,38)/t23-,25+,26-,30-/m1/s1

> <Ligand InChI Key>
LNDDBMXOCFEELJ-CPPKFOPJSA-N

> <BindingDB MonomerID>
50330309

> <BindingDB Ligand Name>
(3R,4S,5R,6S)-6-(8-chloro-4-hydroxy-3-(4-hydroxy-3-methoxybenzamido)-2-oxo-2H-chromen-7-yloxy)-5-hydroxy-3-methoxy-2,2-dimethyltetrahydro-2H-pyran-4-yl 5-methyl-1H-pyrrole-2-carboxylate::CHEMBL1275884

> <Target Name Assigned by Curator or DataSource>
DNA Gyrase Subunit B

> <Target Source Organism According to Curator or DataSource>
Escherichia coli

> <Ki (nM)>


> <IC50 (nM)>
 122

> <Kd (nM)>


> <EC50 (nM)>


> <kon (M-1-s-1)>


> <koff (s-1)>


> <pH>


> <Temp C>


> <Curation/DataSource>
ChEMBL

> <Article DOI>
10.1128/AAC.01235-07

> <PMID>
18347114

> <PubChem AID>


> <Patent Number>


> <Authors>
Anderle, C; Stieger, M; Burrell, M; Reinelt, S; Maxwell, A; Page, M; Heide, L

> <Institution>
Universit&#228;t T&#252;bingen

> <Link to Ligand in BindingDB>
http://www.bindingdb.org/bind/chemsearch/marvin/MolStructure.jsp?monomerid=50330309

> <Link to Ligand-Target Pair in BindingDB>
http://www.bindingdb.org/jsp/dbsearch/PrimarySearch_ki.jsp?energyterm=kJ/mole&tag=pol&polymerid=2630&target=DNA+Gyrase+Subunit+B&column=ki&startPg=0&Increment=50&submit=Search

> <Link to Ligand-Target Pair in BindingDB>
http://www.bindingdb.org/jsp/dbsearch/PrimarySearch_ki.jsp?energyterm=kJ/mole&tag=r21&monomerid=50330309&enzyme=DNA+Gyrase+Subunit+B&column=ki&startPg=0&Increment=50&submit=Search

> <Ligand HET ID in PDB>


> <PDB ID(s) for Ligand-Target Complex>


> <PubChem CID>
54708659

> <PubChem SID>
123109424

> <ChEBI ID of Ligand>


> <ChEMBL ID of Ligand>
CHEMBL1275884

> <DrugBank ID of Ligand>


> <IUPHAR_GRAC ID of Ligand>


> <KEGG ID of Ligand>


> <ZINC ID of Ligand>
ZINC72138085

> <Number of Protein Chains in Target (>1 implies a multichain complex)>
1

> <BindingDB Target Chain Sequence>
MSNSYDSSSIKVLKGLDAVRKRPGMYIGDTDDGTGLHHMVFEVVDNAIDEALAGHCKEII
VTIHADNSVSVQDDGRGIPTGIHPEEGVSAAEVIMTVLHAGGKFDDNSYKVSGGLHGVGV
SVVNALSQKLELVIQREGKIHRQIYEHGVPQAPLAVTGETEKTGTMVRFWPSLETFTNVT
EFEYEILAKRLRELSFLNSGVSIRLRDKRDGKEDHFHYEGGIKAFVEYLNKNKTPIHPNI
FYFSTEKDGIGVEVALQWNDGFQENIYCFTNNIPQRDGGTHLAGFRAAMTRTLNAYMDKE
GYSKKAKVSATGDDAREGLIAVVSVKVPDPKFSSQTKDKLVSSEVKSAVEQQMNELLAEY
LLENPTDAKIVVGKIIDAARAREAARRAREMTRRKGALDLAGLPGKLADCQERDPALSEL
YLVEGDSAGGSAKQGRNRKNQAILPLKGKILNVEKARFDKMLSSQEVATLITALGCGIGR
DEYNPDKLRYHSIIIMTDADVDGSHIRTLLLTFFYRQMPEIVERGHVYIAQPPLYKVKKG
KQEQYIKDDEAMDQYQISIALDGATLHTNASAPALAGEALEKLVSEYNATQKMINRMERR
YPKAMLKELIYQPTLTEADLSDEQTVTRWVNALVSELNDKEQHGSQWKFDVHTNAEQNLF
EPIVRVRTHGVDTDYPLDHEFITGGEYRRICTLGEKLRGLLEEDAFIERGERRQPVASFE
QALDWLVKESRRGLSIQRYKGLGEMNPEQLWETTMDPESRRMLRVTVKDAIAADQLFTTL
MGDAVEPRRAFIEENALKAANIDI

> <PDB ID(s) of Target Chain>
1KZN,3G7E,3NUH,4DUH,4HYP,4KFG,4PRV,4PRX,4PU9,4WUB,4WUC,4WUD,4XTJ,4ZVI,5L3J,5MMN,5MMO,5MMP,5Z4H,5Z4O,5Z9B,5Z9E,5Z9F,5Z9L,5Z9M,5Z9N,5Z9Q,6ENG,6F86,6F8J,6F94,6F96

> <UniProt (SwissProt) Recommended Name of Target Chain>
DNA gyrase subunit B

> <UniProt (SwissProt) Entry Name of Target Chain>
GYRB_ECOLI

> <UniProt (SwissProt) Primary ID of Target Chain>
P0AES6

> <UniProt (SwissProt) Secondary ID(s) of Target Chain>
O08438,P06982,Q2M811

> <UniProt (SwissProt) Alternative ID(s) of Target Chain>


> <UniProt (TrEMBL) Submitted Name of Target Chain>


> <UniProt (TrEMBL) Entry Name of Target Chain>


> <UniProt (TrEMBL) Primary ID of Target Chain>


> <UniProt (TrEMBL) Secondary ID(s) of Target Chain>


> <UniProt (TrEMBL) Alternative ID(s) of Target Chain>


$$$$

  SciTegic09261414462D

 22 23  0  0  0  0            999 V2000
    5.1865  -22.9143    0.0000 C   0  0
    5.1854  -23.7339    0.0000 C   0  0
    5.8934  -24.1428    0.0000 C   0  0
    6.6031  -23.7334    0.0000 C   0  0
    6.6002  -22.9107    0.0000 C   0  0
    5.8916  -22.5055    0.0000 N   0  0
    4.4787  -22.5059    0.0000 N   0  0
    3.7711  -22.9147    0.0000 C   0  0
    3.0633  -22.5062    0.0000 N   0  0
    3.7713  -23.7319    0.0000 O   0  0
    2.3557  -22.9150    0.0000 C   0  0
    1.6479  -22.5066    0.0000 C   0  0
    7.3079  -24.1401    0.0000 C   0  0
    7.3079  -24.9584    0.0000 C   0  0
    8.0154  -25.3658    0.0000 N   0  0
    8.7234  -24.9561    0.0000 C   0  0
    8.7195  -24.1347    0.0000 C   0  0
    8.0114  -23.7309    0.0000 C   0  0
    9.4251  -23.7225    0.0000 C   0  0
   10.1349  -24.1274    0.0000 O   0  0
    9.4209  -22.9053    0.0000 O   0  0
    5.8932  -24.9600    0.0000 Cl  0  0
  1  2  2  0
  2  3  1  0
  3  4  2  0
  4  5  1  0
  5  6  2  0
  6  1  1  0
  1  7  1  0
  7  8  1  0
  8  9  1  0
  8 10  2  0
  9 11  1  0
 11 12  1  0
 13 14  2  0
 14 15  1  0
 15 16  2  0
 16 17  1  0
 17 18  2  0
 18 13  1  0
  4 13  1  0
 17 19  1  0
 19 20  1  0
 19 21  2  0
  3 22  1  0
M  END
> <From> 
www.bindingDB.org

> <BindingDB Reactant_set_id>
50083263

> <Ligand InChI>
InChI=1S/C14H13ClN4O3/c1-2-17-14(22)19-12-4-11(15)10(7-18-12)8-3-9(13(20)21)6-16-5-8/h3-7H,2H2,1H3,(H,20,21)(H2,17,18,19,22)

> <Ligand InChI Key>
OHZKXKVIHHZGBX-UHFFFAOYSA-N

> <BindingDB MonomerID>
50006559

> <BindingDB Ligand Name>
CHEMBL3235079

> <Target Name Assigned by Curator or DataSource>
DNA Gyrase Subunit B

> <Target Source Organism According to Curator or DataSource>
Staphylococcus aureus

> <Ki (nM)>


> <IC50 (nM)>
 130

> <Kd (nM)>


> <EC50 (nM)>


> <kon (M-1-s-1)>


> <koff (s-1)>


> <pH>


> <Temp C>


> <Curation/DataSource>
ChEMBL

> <Article DOI>
10.1021/jm401208b

> <PMID>
24098982

> <PubChem AID>


> <Patent Number>


> <Authors>
Basarab, GS; Basarab, GS; Boriack-Sjodin, PA; Boriack-Sjodin, PA; Illingworth, R; Illingworth, R; Manchester, JI; Manchester, JI; Dangel, B; Dangel, B; Sriram, S; Sriram, S

> <Institution>
AstraZeneca R&amp;D Boston

> <Link to Ligand in BindingDB>
http://www.bindingdb.org/bind/chemsearch/marvin/MolStructure.jsp?monomerid=50006559

> <Link to Ligand-Target Pair in BindingDB>
http://www.bindingdb.org/jsp/dbsearch/PrimarySearch_ki.jsp?energyterm=kJ/mole&tag=pol&polymerid=2626&target=DNA+Gyrase+Subunit+B&column=ki&startPg=0&Increment=50&submit=Search

> <Link to Ligand-Target Pair in BindingDB>
http://www.bindingdb.org/jsp/dbsearch/PrimarySearch_ki.jsp?energyterm=kJ/mole&tag=r21&monomerid=50006559&enzyme=DNA+Gyrase+Subunit+B&column=ki&startPg=0&Increment=50&submit=Search

> <Ligand HET ID in PDB>


> <PDB ID(s) for Ligand-Target Complex>


> <PubChem CID>
72712256

> <PubChem SID>
103919960

> <ChEBI ID of Ligand>


> <ChEMBL ID of Ligand>
CHEMBL3235079

> <DrugBank ID of Ligand>


> <IUPHAR_GRAC ID of Ligand>


> <KEGG ID of Ligand>


> <ZINC ID of Ligand>
ZINC26295206

> <Number of Protein Chains in Target (>1 implies a multichain complex)>
1

> <BindingDB Target Chain Sequence>
MVTALSDVNNTDNYGAGQIQVLEGLEAVRKRPGMYIGSTSERGLHHLVWEIVDNSIDEALAGYANQIEVVIEKDNWIKVTDNGRGIPVDIQEKMGRPAVEVILTVLHAGGKFGGGGYKVSGGLHGVGSSVVNALSQDLEVYVHRNETIYHQAYKKGVPQFDLKEVGTTDKTGTVIRFKADGEIFTETTVYNYETLQQRIRELAFLNKGIQITLRDERDEENVREDSYHYEGGIKSYVELLNENKEPIHDEPIYIHQSKDDIEVEIAIQYNSGYATNLLTYANNIHTYEGGTHEDGFKRALTRVLNSYGLSSKIMKEEKDRLSGEDTREGMTAIISIKHGDPQFEGQTKTKLGNSEVRQVVDKLFSEHFERFLYENPQVARTVVEKGIMAARARVAAKKAREVTRRKSALDVASLPGKLADCSSKSPEECEIFLVEGDSAGGSTKSGRDSRTQAILPLRGKILNVEKARLDRILNNNEIRQMITAFGTGIGGDFDLAKARYHKIVIMTDADVDGAHIRTLLLTFFYRFMRPLIEAGYVYIAQPPLYKLTQGKQKYYVYNDRELDKLKSELNPTPKWSIARYKGLGEMNADQLWETTMNPEHRALLQVKLEDAIEADQTFEMLMGDVVENRRQFIEDNAVYANLDF

> <PDB ID(s) of Target Chain>


> <UniProt (SwissProt) Recommended Name of Target Chain>
DNA gyrase subunit B

> <UniProt (SwissProt) Entry Name of Target Chain>
GYRB_STAAU

> <UniProt (SwissProt) Primary ID of Target Chain>
P0A0K8

> <UniProt (SwissProt) Secondary ID(s) of Target Chain>
P20832

> <UniProt (SwissProt) Alternative ID(s) of Target Chain>


> <UniProt (TrEMBL) Submitted Name of Target Chain>


> <UniProt (TrEMBL) Entry Name of Target Chain>


> <UniProt (TrEMBL) Primary ID of Target Chain>


> <UniProt (TrEMBL) Secondary ID(s) of Target Chain>


> <UniProt (TrEMBL) Alternative ID(s) of Target Chain>


$$$$

  Mrv0541 11231413392D          

 43 47  0  0  0  0            999 V2000
   -1.3347  -13.6531    0.0000 C   0  0  0  0  0  0  0  0  0  0  0  0
   -2.0607  -13.2516    0.0000 C   0  0  1  0  0  0  0  0  0  0  0  0
   -2.7674  -13.6771    0.0000 C   0  0  2  0  0  0  0  0  0  0  0  0
   -2.7546  -14.5060    0.0000 C   0  0  2  0  0  0  0  0  0  0  0  0
   -2.0286  -14.9075    0.0000 C   0  0  1  0  0  0  0  0  0  0  0  0
   -1.3156  -14.4802    0.0000 O   0  0  0  0  0  0  0  0  0  0  0  0
   -2.0143  -15.7324    0.0000 O   0  0  0  0  0  0  0  0  0  0  0  0
   -1.2946  -16.1437    0.0000 C   0  0  0  0  0  0  0  0  0  0  0  0
   -1.2953  -16.9682    0.0000 C   0  0  0  0  0  0  0  0  0  0  0  0
   -0.5797  -15.7294    0.0000 C   0  0  0  0  0  0  0  0  0  0  0  0
    0.1347  -16.1471    0.0000 C   0  0  0  0  0  0  0  0  0  0  0  0
    0.1329  -16.9718    0.0000 C   0  0  0  0  0  0  0  0  0  0  0  0
   -0.5823  -17.3833    0.0000 C   0  0  0  0  0  0  0  0  0  0  0  0
   -0.5835  -18.2040    0.0000 O   0  0  0  0  0  0  0  0  0  0  0  0
    0.1288  -18.6194    0.0000 C   0  0  0  0  0  0  0  0  0  0  0  0
    0.8440  -18.2078    0.0000 C   0  0  0  0  0  0  0  0  0  0  0  0
    0.8470  -17.3809    0.0000 C   0  0  0  0  0  0  0  0  0  0  0  0
    1.5614  -16.9685    0.0000 O   0  0  0  0  0  0  0  0  0  0  0  0
    0.1264  -19.4443    0.0000 O   0  0  0  0  0  0  0  0  0  0  0  0
    1.5575  -18.6220    0.0000 N   0  0  0  0  0  0  0  0  0  0  0  0
    1.5554  -19.4470    0.0000 C   0  0  0  0  0  0  0  0  0  0  0  0
    0.8399  -19.8577    0.0000 O   0  0  0  0  0  0  0  0  0  0  0  0
    2.2688  -19.8614    0.0000 C   0  0  0  0  0  0  0  0  0  0  0  0
    2.2639  -20.6855    0.0000 C   0  0  0  0  0  0  0  0  0  0  0  0
    2.9764  -21.0997    0.0000 C   0  0  0  0  0  0  0  0  0  0  0  0
    3.6930  -20.6889    0.0000 C   0  0  0  0  0  0  0  0  0  0  0  0
    3.6924  -19.8597    0.0000 C   0  0  0  0  0  0  0  0  0  0  0  0
    2.9792  -19.4492    0.0000 C   0  0  0  0  0  0  0  0  0  0  0  0
   -0.5072  -13.6343    0.0000 C   0  0  0  0  0  0  0  0  0  0  0  0
   -1.3456  -12.8301    0.0000 C   0  0  0  0  0  0  0  0  0  0  0  0
   -2.0758  -12.4267    0.0000 O   0  0  0  0  0  0  0  0  0  0  0  0
   -1.3690  -12.0012    0.0000 C   0  0  0  0  0  0  0  0  0  0  0  0
   -3.4888  -13.2768    0.0000 O   0  0  0  0  0  0  0  0  0  0  0  0
   -3.5028  -12.4519    0.0000 C   0  0  0  0  0  0  0  0  0  0  0  0
   -4.2238  -12.0513    0.0000 C   0  0  0  0  0  0  0  0  0  0  0  0
   -2.7954  -12.0274    0.0000 O   0  0  0  0  0  0  0  0  0  0  0  0
   -3.4619  -14.9305    0.0000 O   0  0  0  0  0  0  0  0  0  0  0  0
   -4.4597  -11.2578    0.0000 C   0  0  0  0  0  0  0  0  0  0  0  0
   -5.2843  -11.2347    0.0000 C   0  0  0  0  0  0  0  0  0  0  0  0
   -5.5611  -12.0119    0.0000 C   0  0  0  0  0  0  0  0  0  0  0  0
   -4.9075  -12.5151    0.0000 N   0  0  0  0  0  0  0  0  0  0  0  0
   -6.2790  -12.4160    0.0000 C   0  0  0  0  0  0  0  0  0  0  0  0
   -2.0107  -17.3790    0.0000 C   0  0  0  0  0  0  0  0  0  0  0  0
  8 10  2  0  0  0  0
 20 21  1  0  0  0  0
  9 13  2  0  0  0  0
 21 22  2  0  0  0  0
 11 10  1  0  0  0  0
 21 23  1  0  0  0  0
 11 12  2  0  0  0  0
 23 24  2  0  0  0  0
  3  4  1  0  0  0  0
 24 25  1  0  0  0  0
 12 13  1  0  0  0  0
 25 26  2  0  0  0  0
  4  5  1  0  0  0  0
 26 27  1  0  0  0  0
  5  6  1  0  0  0  0
 27 28  2  0  0  0  0
 28 23  1  0  0  0  0
  1 29  1  0  0  0  0
  5  7  1  1  0  0  0
  1 30  1  0  0  0  0
  2  1  1  0  0  0  0
  2 31  1  1  0  0  0
  7  8  1  0  0  0  0
 31 32  1  0  0  0  0
 12 17  1  0  0  0  0
  3 33  1  6  0  0  0
 13 14  1  0  0  0  0
 33 34  1  0  0  0  0
 14 15  1  0  0  0  0
 34 35  1  0  0  0  0
 15 16  1  0  0  0  0
 34 36  2  0  0  0  0
 16 17  2  0  0  0  0
  4 37  1  6  0  0  0
 35 38  2  0  0  0  0
  8  9  1  0  0  0  0
 17 18  1  0  0  0  0
  1  6  1  0  0  0  0
 15 19  2  0  0  0  0
 38 39  1  0  0  0  0
 39 40  2  0  0  0  0
 40 41  1  0  0  0  0
 41 35  1  0  0  0  0
  3  2  1  0  0  0  0
 40 42  1  0  0  0  0
 16 20  1  0  0  0  0
  9 43  1  0  0  0  0
M  END
> <From> 
www.bindingDB.org

> <BindingDB Reactant_set_id>
50607679

> <Ligand InChI>
InChI=1S/C31H32N2O10/c1-15-11-13-19(32-15)28(37)42-25-23(35)30(43-31(3,4)26(25)39-5)40-20-14-12-18-22(34)21(29(38)41-24(18)16(20)2)33-27(36)17-9-7-6-8-10-17/h6-14,23,25-26,30,32,34-35H,1-5H3,(H,33,36)/t23-,25+,26-,30-/m1/s1

> <Ligand InChI Key>
XVPLXOXPSDLWJA-CPPKFOPJSA-N

> <BindingDB MonomerID>
50330308

> <BindingDB Ligand Name>
(3R,4S,5R,6R)-6-(3-benzamido-4-hydroxy-8-methyl-2-oxo-2H-chromen-7-yloxy)-5-hydroxy-3-methoxy-2,2-dimethyltetrahydro-2H-pyran-4-yl 5-methyl-1H-pyrrole-2-carboxylate::CHEMBL1275885

> <Target Name Assigned by Curator or DataSource>
DNA Gyrase Subunit B

> <Target Source Organism According to Curator or DataSource>
Escherichia coli

> <Ki (nM)>


> <IC50 (nM)>
 131

> <Kd (nM)>


> <EC50 (nM)>


> <kon (M-1-s-1)>


> <koff (s-1)>


> <pH>


> <Temp C>


> <Curation/DataSource>
ChEMBL

> <Article DOI>
10.1128/AAC.01235-07

> <PMID>
18347114

> <PubChem AID>


> <Patent Number>


> <Authors>
Anderle, C; Stieger, M; Burrell, M; Reinelt, S; Maxwell, A; Page, M; Heide, L

> <Institution>
Universit&#228;t T&#252;bingen

> <Link to Ligand in BindingDB>
http://www.bindingdb.org/bind/chemsearch/marvin/MolStructure.jsp?monomerid=50330308

> <Link to Ligand-Target Pair in BindingDB>
http://www.bindingdb.org/jsp/dbsearch/PrimarySearch_ki.jsp?energyterm=kJ/mole&tag=pol&polymerid=2630&target=DNA+Gyrase+Subunit+B&column=ki&startPg=0&Increment=50&submit=Search

> <Link to Ligand-Target Pair in BindingDB>
http://www.bindingdb.org/jsp/dbsearch/PrimarySearch_ki.jsp?energyterm=kJ/mole&tag=r21&monomerid=50330308&enzyme=DNA+Gyrase+Subunit+B&column=ki&startPg=0&Increment=50&submit=Search

> <Ligand HET ID in PDB>


> <PDB ID(s) for Ligand-Target Complex>


> <PubChem CID>
54721832

> <PubChem SID>
123109423

> <ChEBI ID of Ligand>


> <ChEMBL ID of Ligand>
CHEMBL1275885

> <DrugBank ID of Ligand>


> <IUPHAR_GRAC ID of Ligand>


> <KEGG ID of Ligand>


> <ZINC ID of Ligand>
ZINC43693230

> <Number of Protein Chains in Target (>1 implies a multichain complex)>
1

> <BindingDB Target Chain Sequence>
MSNSYDSSSIKVLKGLDAVRKRPGMYIGDTDDGTGLHHMVFEVVDNAIDEALAGHCKEII
VTIHADNSVSVQDDGRGIPTGIHPEEGVSAAEVIMTVLHAGGKFDDNSYKVSGGLHGVGV
SVVNALSQKLELVIQREGKIHRQIYEHGVPQAPLAVTGETEKTGTMVRFWPSLETFTNVT
EFEYEILAKRLRELSFLNSGVSIRLRDKRDGKEDHFHYEGGIKAFVEYLNKNKTPIHPNI
FYFSTEKDGIGVEVALQWNDGFQENIYCFTNNIPQRDGGTHLAGFRAAMTRTLNAYMDKE
GYSKKAKVSATGDDAREGLIAVVSVKVPDPKFSSQTKDKLVSSEVKSAVEQQMNELLAEY
LLENPTDAKIVVGKIIDAARAREAARRAREMTRRKGALDLAGLPGKLADCQERDPALSEL
YLVEGDSAGGSAKQGRNRKNQAILPLKGKILNVEKARFDKMLSSQEVATLITALGCGIGR
DEYNPDKLRYHSIIIMTDADVDGSHIRTLLLTFFYRQMPEIVERGHVYIAQPPLYKVKKG
KQEQYIKDDEAMDQYQISIALDGATLHTNASAPALAGEALEKLVSEYNATQKMINRMERR
YPKAMLKELIYQPTLTEADLSDEQTVTRWVNALVSELNDKEQHGSQWKFDVHTNAEQNLF
EPIVRVRTHGVDTDYPLDHEFITGGEYRRICTLGEKLRGLLEEDAFIERGERRQPVASFE
QALDWLVKESRRGLSIQRYKGLGEMNPEQLWETTMDPESRRMLRVTVKDAIAADQLFTTL
MGDAVEPRRAFIEENALKAANIDI

> <PDB ID(s) of Target Chain>
1KZN,3G7E,3NUH,4DUH,4HYP,4KFG,4PRV,4PRX,4PU9,4WUB,4WUC,4WUD,4XTJ,4ZVI,5L3J,5MMN,5MMO,5MMP,5Z4H,5Z4O,5Z9B,5Z9E,5Z9F,5Z9L,5Z9M,5Z9N,5Z9Q,6ENG,6F86,6F8J,6F94,6F96

> <UniProt (SwissProt) Recommended Name of Target Chain>
DNA gyrase subunit B

> <UniProt (SwissProt) Entry Name of Target Chain>
GYRB_ECOLI

> <UniProt (SwissProt) Primary ID of Target Chain>
P0AES6

> <UniProt (SwissProt) Secondary ID(s) of Target Chain>
O08438,P06982,Q2M811

> <UniProt (SwissProt) Alternative ID(s) of Target Chain>


> <UniProt (TrEMBL) Submitted Name of Target Chain>


> <UniProt (TrEMBL) Entry Name of Target Chain>


> <UniProt (TrEMBL) Primary ID of Target Chain>


> <UniProt (TrEMBL) Secondary ID(s) of Target Chain>


> <UniProt (TrEMBL) Alternative ID(s) of Target Chain>


$$$$

  Mrv0541 11241408262D          

 30 33  0  0  0  0            999 V2000
   -1.7098  -19.1333    0.0000 C   0  0  0  0  0  0  0  0  0  0  0  0
   -1.7109  -19.9607    0.0000 C   0  0  0  0  0  0  0  0  0  0  0  0
   -0.9961  -20.3735    0.0000 C   0  0  0  0  0  0  0  0  0  0  0  0
   -0.9979  -18.7205    0.0000 C   0  0  0  0  0  0  0  0  0  0  0  0
    0.5088  -18.8756    0.0000 N   0  0  0  0  0  0  0  0  0  0  0  0
   -0.2825  -19.1297    0.0000 C   0  0  0  0  0  0  0  0  0  0  0  0
   -0.2844  -19.9614    0.0000 N   0  0  0  0  0  0  0  0  0  0  0  0
    0.5068  -20.2188    0.0000 C   0  0  0  0  0  0  0  0  0  0  0  0
    0.9948  -19.5453    0.0000 C   0  0  0  0  0  0  0  0  0  0  0  0
   -2.4222  -18.7211    0.0000 C   0  0  0  0  0  0  0  0  0  0  0  0
   -2.4211  -17.8950    0.0000 C   0  0  0  0  0  0  0  0  0  0  0  0
   -3.1348  -17.4828    0.0000 N   0  0  0  0  0  0  0  0  0  0  0  0
   -3.8502  -17.8955    0.0000 C   0  0  0  0  0  0  0  0  0  0  0  0
   -3.8473  -18.7248    0.0000 N   0  0  0  0  0  0  0  0  0  0  0  0
   -3.1330  -19.1333    0.0000 C   0  0  0  0  0  0  0  0  0  0  0  0
   -0.9941  -21.1958    0.0000 C   0  0  0  0  0  0  0  0  0  0  0  0
   -1.7100  -21.6081    0.0000 N   0  0  0  0  0  0  0  0  0  0  0  0
   -1.7099  -22.4323    0.0000 C   0  0  0  0  0  0  0  0  0  0  0  0
   -0.9946  -22.8452    0.0000 C   0  0  0  0  0  0  0  0  0  0  0  0
   -0.2780  -22.4279    0.0000 C   0  0  0  0  0  0  0  0  0  0  0  0
   -0.2817  -21.6050    0.0000 N   0  0  0  0  0  0  0  0  0  0  0  0
    1.8198  -19.5449    0.0000 N   0  0  0  0  0  0  0  0  0  0  0  0
    2.2320  -18.8303    0.0000 C   0  0  0  0  0  0  0  0  0  0  0  0
    1.8193  -18.1160    0.0000 O   0  0  0  0  0  0  0  0  0  0  0  0
    3.0570  -18.8300    0.0000 N   0  0  0  0  0  0  0  0  0  0  0  0
    3.4698  -19.5443    0.0000 C   0  0  0  0  0  0  0  0  0  0  0  0
    4.2948  -19.5439    0.0000 C   0  0  0  0  0  0  0  0  0  0  0  0
   -0.9931  -23.6702    0.0000 C   0  0  0  0  0  0  0  0  0  0  0  0
   -4.5653  -17.4841    0.0000 O   0  0  0  0  0  0  0  0  0  0  0  0
   -4.5666  -16.6591    0.0000 C   0  0  0  0  0  0  0  0  0  0  0  0
 14 15  1  0  0  0  0
 15 10  2  0  0  0  0
  1 10  1  0  0  0  0
  6  4  1  0  0  0  0
  5  6  2  0  0  0  0
 16 17  2  0  0  0  0
  7  8  1  0  0  0  0
 17 18  1  0  0  0  0
  8  9  2  0  0  0  0
 18 19  2  0  0  0  0
  9  5  1  0  0  0  0
 19 20  1  0  0  0  0
  4  1  2  0  0  0  0
 20 21  2  0  0  0  0
 21 16  1  0  0  0  0
  3 16  1  0  0  0  0
  6  7  1  0  0  0  0
  9 22  1  0  0  0  0
 10 11  1  0  0  0  0
 22 23  1  0  0  0  0
 23 24  2  0  0  0  0
 11 12  2  0  0  0  0
 23 25  1  0  0  0  0
  2  3  2  0  0  0  0
 25 26  1  0  0  0  0
 12 13  1  0  0  0  0
 26 27  1  0  0  0  0
  3  7  1  0  0  0  0
 19 28  1  0  0  0  0
 13 14  2  0  0  0  0
 13 29  1  0  0  0  0
  1  2  1  0  0  0  0
 29 30  1  0  0  0  0
M  END
> <From> 
www.bindingDB.org

> <BindingDB Reactant_set_id>
50904843

> <Ligand InChI>
InChI=1S/C20H20N8O2/c1-4-21-19(29)27-16-11-28-15(18-22-7-12(2)8-23-18)5-13(6-17(28)26-16)14-9-24-20(30-3)25-10-14/h5-11H,4H2,1-3H3,(H2,21,27,29)

> <Ligand InChI Key>
BHFMPHXMPOIADT-UHFFFAOYSA-N

> <BindingDB MonomerID>
50378452

> <BindingDB Ligand Name>
CHEMBL583870

> <Target Name Assigned by Curator or DataSource>
DNA gyrase subunit B

> <Target Source Organism According to Curator or DataSource>
Streptococcus pneumoniae

> <Ki (nM)>


> <IC50 (nM)>
 132

> <Kd (nM)>


> <EC50 (nM)>


> <kon (M-1-s-1)>


> <koff (s-1)>


> <pH>


> <Temp C>


> <Curation/DataSource>
ChEMBL

> <Article DOI>
10.1016/j.bmcl.2009.07.141

> <PMID>
19683922

> <PubChem AID>


> <Patent Number>


> <Authors>
Starr, JT; Sciotti, RJ; Hanna, DL; Huband, MD; Mullins, LM; Cai, H; Gage, JW; Lockard, M; Rauckhorst, MR; Owen, RM; Lall, MS; Tomilo, M; Chen, H; McCurdy, SP; Barbachyn, MR

> <Institution>
Pfizer Inc.

> <Link to Ligand in BindingDB>
http://www.bindingdb.org/bind/chemsearch/marvin/MolStructure.jsp?monomerid=50378452

> <Link to Ligand-Target Pair in BindingDB>
http://www.bindingdb.org/jsp/dbsearch/PrimarySearch_ki.jsp?energyterm=kJ/mole&tag=pol&polymerid=50005944&target=DNA+gyrase+subunit+B&column=ki&startPg=0&Increment=50&submit=Search

> <Link to Ligand-Target Pair in BindingDB>
http://www.bindingdb.org/jsp/dbsearch/PrimarySearch_ki.jsp?energyterm=kJ/mole&tag=r21&monomerid=50378452&enzyme=DNA+gyrase+subunit+B&column=ki&startPg=0&Increment=50&submit=Search

> <Ligand HET ID in PDB>


> <PDB ID(s) for Ligand-Target Complex>


> <PubChem CID>
45484776

> <PubChem SID>
160857535

> <ChEBI ID of Ligand>


> <ChEMBL ID of Ligand>
CHEMBL583870

> <DrugBank ID of Ligand>


> <IUPHAR_GRAC ID of Ligand>


> <KEGG ID of Ligand>


> <ZINC ID of Ligand>
ZINC45319495

> <Number of Protein Chains in Target (>1 implies a multichain complex)>
1

> <BindingDB Target Chain Sequence>
MTEEIKNLQAQDYDASQIQVLEGLEAVRMRPGMYIGSTSKEGLHHLVWEIVDNSIDEALAGFASHIQVFIEPDDSITVVDDGRGIPVDIQEKTGRPAVETVFTVLHAGGKFGGGGYKVSGGLHGVGSSVVNALSTQLDVHVHKNGKIHYQEYRRGHVVADLEIVGDTDKTGTTVHFTPDPKIFTETTIFDFDKLNKRIQELAFLNRGLQISITDKRQGLEQTKHYHYEGGIASYVEYINENKDVIFDTPIYTDGEMDDITVEVAMQYTTGYHENVMSFANNIHTHEGGTHEQGFRTALTRVINDYARKNKLLKDNEDNLTGEDVREGLTAVISVKHPNPQFEGQTKTKLGNSEVVKITNRLFSEAFSDFLMENPQIAKRIVEKGILAAKARVAAKRAREVTRKKSGLEISNLPGKLADCSSNNPAETELFIVEGDSAGGSAKSGRNREFQAILPIRGKILNVEKASMDKILANEEIRSLFTAMGTGFGAEFDVSKARYQKLVLMTDADVDGAHIRTLLLTLIYRYMKPILEAGYVYIAQPPIYGVKVGSEIKEYIQPGADQEIKLQEALARYSEGRTKPTIQRYKGLGEMDDHQLWETTMDPEHRLMARVSVDDAAEADKIFDMLMGDRVEPRREFIEENAVYSTLDV

> <PDB ID(s) of Target Chain>
4Z2C,4Z2D,4Z2E

> <UniProt (SwissProt) Recommended Name of Target Chain>
DNA gyrase subunit B

> <UniProt (SwissProt) Entry Name of Target Chain>
GYRB_STRPN

> <UniProt (SwissProt) Primary ID of Target Chain>
P0A4L9

> <UniProt (SwissProt) Secondary ID(s) of Target Chain>
P48373

> <UniProt (SwissProt) Alternative ID(s) of Target Chain>


> <UniProt (TrEMBL) Submitted Name of Target Chain>


> <UniProt (TrEMBL) Entry Name of Target Chain>


> <UniProt (TrEMBL) Primary ID of Target Chain>


> <UniProt (TrEMBL) Secondary ID(s) of Target Chain>


> <UniProt (TrEMBL) Alternative ID(s) of Target Chain>


$$$$

  Mrv0541 11241412072D          

 33 36  0  0  0  0            999 V2000
   17.6122   -4.7694    0.0000 C   0  0  0  0  0  0  0  0  0  0  0  0
   18.3287   -4.3560    0.0000 C   0  0  0  0  0  0  0  0  0  0  0  0
   18.3258   -3.5255    0.0000 C   0  0  0  0  0  0  0  0  0  0  0  0
   17.6104   -3.1164    0.0000 N   0  0  0  0  0  0  0  0  0  0  0  0
   16.8974   -4.3565    0.0000 C   0  0  0  0  0  0  0  0  0  0  0  0
   16.8987   -3.5276    0.0000 C   0  0  0  0  0  0  0  0  0  0  0  0
   16.1107   -3.2702    0.0000 N   0  0  0  0  0  0  0  0  0  0  0  0
   15.6224   -3.9401    0.0000 C   0  0  0  0  0  0  0  0  0  0  0  0
   16.1087   -4.6114    0.0000 C   0  0  0  0  0  0  0  0  0  0  0  0
   19.0402   -4.7666    0.0000 C   0  0  0  0  0  0  0  0  0  0  0  0
   19.0402   -5.5928    0.0000 C   0  0  0  0  0  0  0  0  0  0  0  0
   19.7545   -6.0041    0.0000 N   0  0  0  0  0  0  0  0  0  0  0  0
   20.4693   -5.5904    0.0000 C   0  0  0  0  0  0  0  0  0  0  0  0
   20.4653   -4.7611    0.0000 C   0  0  0  0  0  0  0  0  0  0  0  0
   19.7505   -4.3535    0.0000 C   0  0  0  0  0  0  0  0  0  0  0  0
   21.1803   -4.3436    0.0000 C   0  0  0  0  0  0  0  0  0  0  0  0
   21.8968   -4.7524    0.0000 O   0  0  0  0  0  0  0  0  0  0  0  0
   21.1761   -3.5186    0.0000 O   0  0  0  0  0  0  0  0  0  0  0  0
   17.6144   -5.5906    0.0000 N   0  0  0  0  0  0  0  0  0  0  0  0
   16.9468   -6.0754    0.0000 C   0  0  0  0  0  0  0  0  0  0  0  0
   17.2016   -6.8601    0.0000 C   0  0  0  0  0  0  0  0  0  0  0  0
   18.0266   -6.8603    0.0000 C   0  0  0  0  0  0  0  0  0  0  0  0
   18.2816   -6.0757    0.0000 N   0  0  0  0  0  0  0  0  0  0  0  0
   18.5115   -7.5278    0.0000 C   0  0  0  0  0  0  0  0  0  0  0  0
   18.1758   -8.2814    0.0000 F   0  0  0  0  0  0  0  0  0  0  0  0
   19.3320   -7.4417    0.0000 F   0  0  0  0  0  0  0  0  0  0  0  0
   18.9167   -8.2375    0.0000 F   0  0  0  0  0  0  0  0  0  0  0  0
   14.7974   -3.9389    0.0000 C   0  0  0  0  0  0  0  0  0  0  0  0
   14.3859   -3.2239    0.0000 N   0  0  0  0  0  0  0  0  0  0  0  0
   14.3839   -4.6528    0.0000 O   0  0  0  0  0  0  0  0  0  0  0  0
   13.5609   -3.2227    0.0000 C   0  0  0  0  0  0  0  0  0  0  0  0
   13.1495   -2.5076    0.0000 C   0  0  0  0  0  0  0  0  0  0  0  0
   16.1623   -5.8203    0.0000 C   0  0  0  0  0  0  0  0  0  0  0  0
  3  4  1  0  0  0  0
  6  7  1  0  0  0  0
  7  8  1  0  0  0  0
 16 17  1  0  0  0  0
 16 18  2  0  0  0  0
 14 16  1  0  0  0  0
 19 20  1  0  0  0  0
  8  9  2  0  0  0  0
  9  5  1  0  0  0  0
  4  6  2  0  0  0  0
  5  6  1  0  0  0  0
 10 11  2  0  0  0  0
 20 21  2  0  0  0  0
 21 22  1  0  0  0  0
 22 23  2  0  0  0  0
 23 19  1  0  0  0  0
  1 19  1  0  0  0  0
  1  2  1  0  0  0  0
 22 24  1  0  0  0  0
 11 12  1  0  0  0  0
 24 25  1  0  0  0  0
  5  1  2  0  0  0  0
 24 26  1  0  0  0  0
 12 13  2  0  0  0  0
 24 27  1  0  0  0  0
  2  3  2  0  0  0  0
  8 28  1  0  0  0  0
 13 14  1  0  0  0  0
 28 29  1  0  0  0  0
 28 30  2  0  0  0  0
 14 15  2  0  0  0  0
 29 31  1  0  0  0  0
 15 10  1  0  0  0  0
 31 32  1  0  0  0  0
  2 10  1  0  0  0  0
 20 33  1  0  0  0  0
M  END
> <From> 
www.bindingDB.org

> <BindingDB Reactant_set_id>
50945993

> <Ligand InChI>
InChI=1S/C21H17F3N6O3/c1-3-26-19(31)15-6-13-17(30-10(2)4-16(29-30)21(22,23)24)14(9-27-18(13)28-15)11-5-12(20(32)33)8-25-7-11/h4-9H,3H2,1-2H3,(H,26,31)(H,27,28)(H,32,33)

> <Ligand InChI Key>
CUFNPWIVKPZKPX-UHFFFAOYSA-N

> <BindingDB MonomerID>
50388096

> <BindingDB Ligand Name>
CHEMBL2059374

> <Target Name Assigned by Curator or DataSource>
DNA Gyrase Subunit B

> <Target Source Organism According to Curator or DataSource>
Staphylococcus aureus

> <Ki (nM)>


> <IC50 (nM)>
 133

> <Kd (nM)>


> <EC50 (nM)>


> <kon (M-1-s-1)>


> <koff (s-1)>


> <pH>


> <Temp C>


> <Curation/DataSource>
ChEMBL

> <Article DOI>
10.1016/j.bmcl.2012.05.128

> <PMID>
22814212

> <PubChem AID>


> <Patent Number>


> <Authors>
Manchester, JI; Dussault, DD; Rose, JA; Boriack-Sjodin, PA; Uria-Nickelsen, M; Ioannidis, G; Bist, S; Fleming, P; Hull, KG

> <Institution>
AstraZeneca

> <Link to Ligand in BindingDB>
http://www.bindingdb.org/bind/chemsearch/marvin/MolStructure.jsp?monomerid=50388096

> <Link to Ligand-Target Pair in BindingDB>
http://www.bindingdb.org/jsp/dbsearch/PrimarySearch_ki.jsp?energyterm=kJ/mole&tag=pol&polymerid=2626&target=DNA+Gyrase+Subunit+B&column=ki&startPg=0&Increment=50&submit=Search

> <Link to Ligand-Target Pair in BindingDB>
http://www.bindingdb.org/jsp/dbsearch/PrimarySearch_ki.jsp?energyterm=kJ/mole&tag=r21&monomerid=50388096&enzyme=DNA+Gyrase+Subunit+B&column=ki&startPg=0&Increment=50&submit=Search

> <Ligand HET ID in PDB>


> <PDB ID(s) for Ligand-Target Complex>


> <PubChem CID>
62705689

> <PubChem SID>
160867179

> <ChEBI ID of Ligand>


> <ChEMBL ID of Ligand>
CHEMBL2059374

> <DrugBank ID of Ligand>


> <IUPHAR_GRAC ID of Ligand>


> <KEGG ID of Ligand>


> <ZINC ID of Ligand>
ZINC84690408

> <Number of Protein Chains in Target (>1 implies a multichain complex)>
1

> <BindingDB Target Chain Sequence>
MVTALSDVNNTDNYGAGQIQVLEGLEAVRKRPGMYIGSTSERGLHHLVWEIVDNSIDEALAGYANQIEVVIEKDNWIKVTDNGRGIPVDIQEKMGRPAVEVILTVLHAGGKFGGGGYKVSGGLHGVGSSVVNALSQDLEVYVHRNETIYHQAYKKGVPQFDLKEVGTTDKTGTVIRFKADGEIFTETTVYNYETLQQRIRELAFLNKGIQITLRDERDEENVREDSYHYEGGIKSYVELLNENKEPIHDEPIYIHQSKDDIEVEIAIQYNSGYATNLLTYANNIHTYEGGTHEDGFKRALTRVLNSYGLSSKIMKEEKDRLSGEDTREGMTAIISIKHGDPQFEGQTKTKLGNSEVRQVVDKLFSEHFERFLYENPQVARTVVEKGIMAARARVAAKKAREVTRRKSALDVASLPGKLADCSSKSPEECEIFLVEGDSAGGSTKSGRDSRTQAILPLRGKILNVEKARLDRILNNNEIRQMITAFGTGIGGDFDLAKARYHKIVIMTDADVDGAHIRTLLLTFFYRFMRPLIEAGYVYIAQPPLYKLTQGKQKYYVYNDRELDKLKSELNPTPKWSIARYKGLGEMNADQLWETTMNPEHRALLQVKLEDAIEADQTFEMLMGDVVENRRQFIEDNAVYANLDF

> <PDB ID(s) of Target Chain>


> <UniProt (SwissProt) Recommended Name of Target Chain>
DNA gyrase subunit B

> <UniProt (SwissProt) Entry Name of Target Chain>
GYRB_STAAU

> <UniProt (SwissProt) Primary ID of Target Chain>
P0A0K8

> <UniProt (SwissProt) Secondary ID(s) of Target Chain>
P20832

> <UniProt (SwissProt) Alternative ID(s) of Target Chain>


> <UniProt (TrEMBL) Submitted Name of Target Chain>


> <UniProt (TrEMBL) Entry Name of Target Chain>


> <UniProt (TrEMBL) Primary ID of Target Chain>


> <UniProt (TrEMBL) Secondary ID(s) of Target Chain>


> <UniProt (TrEMBL) Alternative ID(s) of Target Chain>


$$$$

  Mrv0541 11231413392D          

 47 51  0  0  0  0            999 V2000
   -0.8765   -8.1532    0.0000 C   0  0  0  0  0  0  0  0  0  0  0  0
   -1.6024   -7.7517    0.0000 C   0  0  1  0  0  0  0  0  0  0  0  0
   -2.3091   -8.1772    0.0000 C   0  0  2  0  0  0  0  0  0  0  0  0
   -2.2962   -9.0062    0.0000 C   0  0  2  0  0  0  0  0  0  0  0  0
   -1.5703   -9.4077    0.0000 C   0  0  1  0  0  0  0  0  0  0  0  0
   -0.8573   -8.9803    0.0000 O   0  0  0  0  0  0  0  0  0  0  0  0
   -1.5560  -10.2326    0.0000 O   0  0  0  0  0  0  0  0  0  0  0  0
   -0.8363  -10.6438    0.0000 C   0  0  0  0  0  0  0  0  0  0  0  0
   -0.8370  -11.4684    0.0000 C   0  0  0  0  0  0  0  0  0  0  0  0
   -0.1214  -10.2296    0.0000 C   0  0  0  0  0  0  0  0  0  0  0  0
    0.5931  -10.6472    0.0000 C   0  0  0  0  0  0  0  0  0  0  0  0
    0.5912  -11.4720    0.0000 C   0  0  0  0  0  0  0  0  0  0  0  0
   -0.1241  -11.8835    0.0000 C   0  0  0  0  0  0  0  0  0  0  0  0
   -0.1253  -12.7042    0.0000 O   0  0  0  0  0  0  0  0  0  0  0  0
    0.5871  -13.1196    0.0000 C   0  0  0  0  0  0  0  0  0  0  0  0
    1.3024  -12.7080    0.0000 C   0  0  0  0  0  0  0  0  0  0  0  0
    1.3052  -11.8811    0.0000 C   0  0  0  0  0  0  0  0  0  0  0  0
    2.0198  -11.4687    0.0000 O   0  0  0  0  0  0  0  0  0  0  0  0
    0.5848  -13.9445    0.0000 O   0  0  0  0  0  0  0  0  0  0  0  0
    2.0158  -13.1222    0.0000 N   0  0  0  0  0  0  0  0  0  0  0  0
    2.0138  -13.9472    0.0000 C   0  0  0  0  0  0  0  0  0  0  0  0
    1.2982  -14.3580    0.0000 O   0  0  0  0  0  0  0  0  0  0  0  0
   -0.0489   -8.1344    0.0000 C   0  0  0  0  0  0  0  0  0  0  0  0
   -0.8873   -7.3302    0.0000 C   0  0  0  0  0  0  0  0  0  0  0  0
   -1.6174   -6.9269    0.0000 O   0  0  0  0  0  0  0  0  0  0  0  0
   -0.9107   -6.5014    0.0000 C   0  0  0  0  0  0  0  0  0  0  0  0
   -3.0305   -7.7769    0.0000 O   0  0  0  0  0  0  0  0  0  0  0  0
   -3.0444   -6.9521    0.0000 C   0  0  0  0  0  0  0  0  0  0  0  0
   -3.7655   -6.5514    0.0000 C   0  0  0  0  0  0  0  0  0  0  0  0
   -2.3372   -6.5276    0.0000 O   0  0  0  0  0  0  0  0  0  0  0  0
   -3.0036   -9.4307    0.0000 O   0  0  0  0  0  0  0  0  0  0  0  0
   -4.0013   -5.7579    0.0000 C   0  0  0  0  0  0  0  0  0  0  0  0
   -4.8260   -5.7348    0.0000 C   0  0  0  0  0  0  0  0  0  0  0  0
   -5.1027   -6.5121    0.0000 C   0  0  0  0  0  0  0  0  0  0  0  0
   -4.4491   -7.0153    0.0000 N   0  0  0  0  0  0  0  0  0  0  0  0
   -5.8208   -6.9162    0.0000 C   0  0  0  0  0  0  0  0  0  0  0  0
   -1.5524  -11.8792    0.0000 Cl  0  0  0  0  0  0  0  0  0  0  0  0
    2.7272  -14.3616    0.0000 C   0  0  0  0  0  0  0  0  0  0  0  0
    2.7251  -15.1866    0.0000 C   0  0  0  0  0  0  0  0  0  0  0  0
    3.4386  -15.6008    0.0000 C   0  0  0  0  0  0  0  0  0  0  0  0
    3.4327  -16.4234    0.0000 C   0  0  0  0  0  0  0  0  0  0  0  0
    4.1453  -16.8376    0.0000 C   0  0  0  0  0  0  0  0  0  0  0  0
    4.8618  -16.4268    0.0000 C   0  0  0  0  0  0  0  0  0  0  0  0
    4.8612  -15.5975    0.0000 C   0  0  0  0  0  0  0  0  0  0  0  0
    4.1481  -15.1870    0.0000 C   0  0  0  0  0  0  0  0  0  0  0  0
    5.5757  -16.8402    0.0000 O   0  0  0  0  0  0  0  0  0  0  0  0
    5.5753  -15.1843    0.0000 Cl  0  0  0  0  0  0  0  0  0  0  0  0
 11 10  1  0  0  0  0
  1 23  1  0  0  0  0
 11 12  2  0  0  0  0
  1 24  1  0  0  0  0
  3  4  1  0  0  0  0
  2 25  1  1  0  0  0
 12 13  1  0  0  0  0
 25 26  1  0  0  0  0
  4  5  1  0  0  0  0
  3 27  1  6  0  0  0
  5  6  1  0  0  0  0
 27 28  1  0  0  0  0
 28 29  1  0  0  0  0
  5  7  1  1  0  0  0
 28 30  2  0  0  0  0
  2  1  1  0  0  0  0
  4 31  1  6  0  0  0
 29 32  2  0  0  0  0
  7  8  1  0  0  0  0
 12 17  1  0  0  0  0
 13 14  1  0  0  0  0
 14 15  1  0  0  0  0
 32 33  1  0  0  0  0
 33 34  2  0  0  0  0
 34 35  1  0  0  0  0
 35 29  1  0  0  0  0
 15 16  1  0  0  0  0
 34 36  1  0  0  0  0
 16 17  2  0  0  0  0
  9 37  1  0  0  0  0
  8  9  1  0  0  0  0
 21 38  1  0  0  0  0
 17 18  1  0  0  0  0
 38 39  2  0  0  0  0
  1  6  1  0  0  0  0
 39 40  1  0  0  0  0
 15 19  2  0  0  0  0
 40 41  2  0  0  0  0
  3  2  1  0  0  0  0
 41 42  1  0  0  0  0
 16 20  1  0  0  0  0
 42 43  2  0  0  0  0
  8 10  2  0  0  0  0
 43 44  1  0  0  0  0
 20 21  1  0  0  0  0
 44 45  2  0  0  0  0
 45 40  1  0  0  0  0
  9 13  2  0  0  0  0
 43 46  1  0  0  0  0
 21 22  2  0  0  0  0
 44 47  1  0  0  0  0
M  END
> <From> 
www.bindingDB.org

> <BindingDB Reactant_set_id>
50607678

> <Ligand InChI>
InChI=1S/C32H30Cl2N2O11/c1-14-5-9-18(35-14)29(41)46-27-25(40)31(47-32(2,3)28(27)43-4)44-20-11-8-16-24(39)23(30(42)45-26(16)22(20)34)36-21(38)12-7-15-6-10-19(37)17(33)13-15/h5-13,25,27-28,31,35,37,39-40H,1-4H3,(H,36,38)/b12-7+/t25-,27+,28-,31-/m1/s1

> <Ligand InChI Key>
PXYJHQPQHPIFEE-RGOARWCYSA-N

> <BindingDB MonomerID>
50330307

> <BindingDB Ligand Name>
(3R,4S,5R,6S)-6-(8-chloro-3-((E)-3-(3-chloro-4-hydroxyphenyl)acrylamido)-4-hydroxy-2-oxo-2H-chromen-7-yloxy)-5-hydroxy-3-methoxy-2,2-dimethyltetrahydro-2H-pyran-4-yl 5-methyl-1H-pyrrole-2-carboxylate::CHEMBL1275886

> <Target Name Assigned by Curator or DataSource>
DNA Gyrase Subunit B

> <Target Source Organism According to Curator or DataSource>
Escherichia coli

> <Ki (nM)>


> <IC50 (nM)>
 137

> <Kd (nM)>


> <EC50 (nM)>


> <kon (M-1-s-1)>


> <koff (s-1)>


> <pH>


> <Temp C>


> <Curation/DataSource>
ChEMBL

> <Article DOI>
10.1128/AAC.01235-07

> <PMID>
18347114

> <PubChem AID>


> <Patent Number>


> <Authors>
Anderle, C; Stieger, M; Burrell, M; Reinelt, S; Maxwell, A; Page, M; Heide, L

> <Institution>
Universit&#228;t T&#252;bingen

> <Link to Ligand in BindingDB>
http://www.bindingdb.org/bind/chemsearch/marvin/MolStructure.jsp?monomerid=50330307

> <Link to Ligand-Target Pair in BindingDB>
http://www.bindingdb.org/jsp/dbsearch/PrimarySearch_ki.jsp?energyterm=kJ/mole&tag=pol&polymerid=2630&target=DNA+Gyrase+Subunit+B&column=ki&startPg=0&Increment=50&submit=Search

> <Link to Ligand-Target Pair in BindingDB>
http://www.bindingdb.org/jsp/dbsearch/PrimarySearch_ki.jsp?energyterm=kJ/mole&tag=r21&monomerid=50330307&enzyme=DNA+Gyrase+Subunit+B&column=ki&startPg=0&Increment=50&submit=Search

> <Ligand HET ID in PDB>


> <PDB ID(s) for Ligand-Target Complex>


> <PubChem CID>
54695812

> <PubChem SID>
123109422

> <ChEBI ID of Ligand>


> <ChEMBL ID of Ligand>
CHEMBL1275886

> <DrugBank ID of Ligand>


> <IUPHAR_GRAC ID of Ligand>


> <KEGG ID of Ligand>


> <ZINC ID of Ligand>
ZINC72138086

> <Number of Protein Chains in Target (>1 implies a multichain complex)>
1

> <BindingDB Target Chain Sequence>
MSNSYDSSSIKVLKGLDAVRKRPGMYIGDTDDGTGLHHMVFEVVDNAIDEALAGHCKEII
VTIHADNSVSVQDDGRGIPTGIHPEEGVSAAEVIMTVLHAGGKFDDNSYKVSGGLHGVGV
SVVNALSQKLELVIQREGKIHRQIYEHGVPQAPLAVTGETEKTGTMVRFWPSLETFTNVT
EFEYEILAKRLRELSFLNSGVSIRLRDKRDGKEDHFHYEGGIKAFVEYLNKNKTPIHPNI
FYFSTEKDGIGVEVALQWNDGFQENIYCFTNNIPQRDGGTHLAGFRAAMTRTLNAYMDKE
GYSKKAKVSATGDDAREGLIAVVSVKVPDPKFSSQTKDKLVSSEVKSAVEQQMNELLAEY
LLENPTDAKIVVGKIIDAARAREAARRAREMTRRKGALDLAGLPGKLADCQERDPALSEL
YLVEGDSAGGSAKQGRNRKNQAILPLKGKILNVEKARFDKMLSSQEVATLITALGCGIGR
DEYNPDKLRYHSIIIMTDADVDGSHIRTLLLTFFYRQMPEIVERGHVYIAQPPLYKVKKG
KQEQYIKDDEAMDQYQISIALDGATLHTNASAPALAGEALEKLVSEYNATQKMINRMERR
YPKAMLKELIYQPTLTEADLSDEQTVTRWVNALVSELNDKEQHGSQWKFDVHTNAEQNLF
EPIVRVRTHGVDTDYPLDHEFITGGEYRRICTLGEKLRGLLEEDAFIERGERRQPVASFE
QALDWLVKESRRGLSIQRYKGLGEMNPEQLWETTMDPESRRMLRVTVKDAIAADQLFTTL
MGDAVEPRRAFIEENALKAANIDI

> <PDB ID(s) of Target Chain>
1KZN,3G7E,3NUH,4DUH,4HYP,4KFG,4PRV,4PRX,4PU9,4WUB,4WUC,4WUD,4XTJ,4ZVI,5L3J,5MMN,5MMO,5MMP,5Z4H,5Z4O,5Z9B,5Z9E,5Z9F,5Z9L,5Z9M,5Z9N,5Z9Q,6ENG,6F86,6F8J,6F94,6F96

> <UniProt (SwissProt) Recommended Name of Target Chain>
DNA gyrase subunit B

> <UniProt (SwissProt) Entry Name of Target Chain>
GYRB_ECOLI

> <UniProt (SwissProt) Primary ID of Target Chain>
P0AES6

> <UniProt (SwissProt) Secondary ID(s) of Target Chain>
O08438,P06982,Q2M811

> <UniProt (SwissProt) Alternative ID(s) of Target Chain>


> <UniProt (TrEMBL) Submitted Name of Target Chain>


> <UniProt (TrEMBL) Entry Name of Target Chain>


> <UniProt (TrEMBL) Primary ID of Target Chain>


> <UniProt (TrEMBL) Secondary ID(s) of Target Chain>


> <UniProt (TrEMBL) Alternative ID(s) of Target Chain>


$$$$

  Mrv0541 11241408262D          

 30 33  0  0  0  0            999 V2000
   -1.1098   -5.9541    0.0000 C   0  0  0  0  0  0  0  0  0  0  0  0
   -1.1109   -6.7815    0.0000 C   0  0  0  0  0  0  0  0  0  0  0  0
   -0.3961   -7.1944    0.0000 C   0  0  0  0  0  0  0  0  0  0  0  0
   -0.3979   -5.5414    0.0000 C   0  0  0  0  0  0  0  0  0  0  0  0
    1.1088   -5.6965    0.0000 N   0  0  0  0  0  0  0  0  0  0  0  0
    0.3175   -5.9505    0.0000 C   0  0  0  0  0  0  0  0  0  0  0  0
    0.3156   -6.7822    0.0000 N   0  0  0  0  0  0  0  0  0  0  0  0
    1.1068   -7.0396    0.0000 C   0  0  0  0  0  0  0  0  0  0  0  0
    1.5948   -6.3661    0.0000 C   0  0  0  0  0  0  0  0  0  0  0  0
   -1.8222   -5.5420    0.0000 C   0  0  0  0  0  0  0  0  0  0  0  0
   -1.8211   -4.7159    0.0000 C   0  0  0  0  0  0  0  0  0  0  0  0
   -2.5348   -4.3036    0.0000 N   0  0  0  0  0  0  0  0  0  0  0  0
   -3.2502   -4.7163    0.0000 C   0  0  0  0  0  0  0  0  0  0  0  0
   -3.2473   -5.5456    0.0000 N   0  0  0  0  0  0  0  0  0  0  0  0
   -2.5330   -5.9541    0.0000 C   0  0  0  0  0  0  0  0  0  0  0  0
   -0.3941   -8.0166    0.0000 C   0  0  0  0  0  0  0  0  0  0  0  0
   -1.1100   -8.4289    0.0000 N   0  0  0  0  0  0  0  0  0  0  0  0
   -1.1099   -9.2531    0.0000 C   0  0  0  0  0  0  0  0  0  0  0  0
   -0.3946   -9.6661    0.0000 C   0  0  0  0  0  0  0  0  0  0  0  0
    0.3220   -9.2487    0.0000 C   0  0  0  0  0  0  0  0  0  0  0  0
    0.3183   -8.4259    0.0000 N   0  0  0  0  0  0  0  0  0  0  0  0
    2.4198   -6.3658    0.0000 N   0  0  0  0  0  0  0  0  0  0  0  0
    2.8320   -5.6511    0.0000 C   0  0  0  0  0  0  0  0  0  0  0  0
    2.4193   -4.9368    0.0000 O   0  0  0  0  0  0  0  0  0  0  0  0
    3.6570   -5.6508    0.0000 N   0  0  0  0  0  0  0  0  0  0  0  0
   -3.9653   -4.3050    0.0000 N   0  0  0  0  0  0  0  0  0  0  0  0
   -3.9666   -3.4800    0.0000 C   0  0  0  0  0  0  0  0  0  0  0  0
   -4.6791   -4.7186    0.0000 C   0  0  0  0  0  0  0  0  0  0  0  0
    4.0698   -6.3651    0.0000 C   0  0  0  0  0  0  0  0  0  0  0  0
    4.8948   -6.3648    0.0000 C   0  0  0  0  0  0  0  0  0  0  0  0
 14 15  1  0  0  0  0
 15 10  2  0  0  0  0
  1 10  1  0  0  0  0
  6  4  1  0  0  0  0
  5  6  2  0  0  0  0
 16 17  2  0  0  0  0
  7  8  1  0  0  0  0
 17 18  1  0  0  0  0
  8  9  2  0  0  0  0
 18 19  2  0  0  0  0
  9  5  1  0  0  0  0
 19 20  1  0  0  0  0
  4  1  2  0  0  0  0
 20 21  2  0  0  0  0
 21 16  1  0  0  0  0
  3 16  1  0  0  0  0
  6  7  1  0  0  0  0
  9 22  1  0  0  0  0
 10 11  1  0  0  0  0
 22 23  1  0  0  0  0
 23 24  2  0  0  0  0
 11 12  2  0  0  0  0
 23 25  1  0  0  0  0
  2  3  2  0  0  0  0
 13 26  1  0  0  0  0
 12 13  1  0  0  0  0
 26 27  1  0  0  0  0
  3  7  1  0  0  0  0
 26 28  1  0  0  0  0
 13 14  2  0  0  0  0
 25 29  1  0  0  0  0
  1  2  1  0  0  0  0
 29 30  1  0  0  0  0
M  END
> <From> 
www.bindingDB.org

> <BindingDB Reactant_set_id>
50904839

> <Ligand InChI>
InChI=1S/C20H21N9O/c1-4-21-20(30)27-16-12-29-15(18-22-6-5-7-23-18)8-13(9-17(29)26-16)14-10-24-19(25-11-14)28(2)3/h5-12H,4H2,1-3H3,(H2,21,27,30)

> <Ligand InChI Key>
KCCNGWJHGUKZEA-UHFFFAOYSA-N

> <BindingDB MonomerID>
50378448

> <BindingDB Ligand Name>
CHEMBL577041

> <Target Name Assigned by Curator or DataSource>
DNA gyrase subunit B

> <Target Source Organism According to Curator or DataSource>
Streptococcus pneumoniae

> <Ki (nM)>


> <IC50 (nM)>
 137

> <Kd (nM)>


> <EC50 (nM)>


> <kon (M-1-s-1)>


> <koff (s-1)>


> <pH>


> <Temp C>


> <Curation/DataSource>
ChEMBL

> <Article DOI>
10.1016/j.bmcl.2009.07.141

> <PMID>
19683922

> <PubChem AID>


> <Patent Number>


> <Authors>
Starr, JT; Sciotti, RJ; Hanna, DL; Huband, MD; Mullins, LM; Cai, H; Gage, JW; Lockard, M; Rauckhorst, MR; Owen, RM; Lall, MS; Tomilo, M; Chen, H; McCurdy, SP; Barbachyn, MR

> <Institution>
Pfizer Inc.

> <Link to Ligand in BindingDB>
http://www.bindingdb.org/bind/chemsearch/marvin/MolStructure.jsp?monomerid=50378448

> <Link to Ligand-Target Pair in BindingDB>
http://www.bindingdb.org/jsp/dbsearch/PrimarySearch_ki.jsp?energyterm=kJ/mole&tag=pol&polymerid=50005944&target=DNA+gyrase+subunit+B&column=ki&startPg=0&Increment=50&submit=Search

> <Link to Ligand-Target Pair in BindingDB>
http://www.bindingdb.org/jsp/dbsearch/PrimarySearch_ki.jsp?energyterm=kJ/mole&tag=r21&monomerid=50378448&enzyme=DNA+gyrase+subunit+B&column=ki&startPg=0&Increment=50&submit=Search

> <Ligand HET ID in PDB>


> <PDB ID(s) for Ligand-Target Complex>


> <PubChem CID>
11384130

> <PubChem SID>
160857531

> <ChEBI ID of Ligand>


> <ChEMBL ID of Ligand>
CHEMBL577041

> <DrugBank ID of Ligand>


> <IUPHAR_GRAC ID of Ligand>


> <KEGG ID of Ligand>


> <ZINC ID of Ligand>
ZINC45290155

> <Number of Protein Chains in Target (>1 implies a multichain complex)>
1

> <BindingDB Target Chain Sequence>
MTEEIKNLQAQDYDASQIQVLEGLEAVRMRPGMYIGSTSKEGLHHLVWEIVDNSIDEALAGFASHIQVFIEPDDSITVVDDGRGIPVDIQEKTGRPAVETVFTVLHAGGKFGGGGYKVSGGLHGVGSSVVNALSTQLDVHVHKNGKIHYQEYRRGHVVADLEIVGDTDKTGTTVHFTPDPKIFTETTIFDFDKLNKRIQELAFLNRGLQISITDKRQGLEQTKHYHYEGGIASYVEYINENKDVIFDTPIYTDGEMDDITVEVAMQYTTGYHENVMSFANNIHTHEGGTHEQGFRTALTRVINDYARKNKLLKDNEDNLTGEDVREGLTAVISVKHPNPQFEGQTKTKLGNSEVVKITNRLFSEAFSDFLMENPQIAKRIVEKGILAAKARVAAKRAREVTRKKSGLEISNLPGKLADCSSNNPAETELFIVEGDSAGGSAKSGRNREFQAILPIRGKILNVEKASMDKILANEEIRSLFTAMGTGFGAEFDVSKARYQKLVLMTDADVDGAHIRTLLLTLIYRYMKPILEAGYVYIAQPPIYGVKVGSEIKEYIQPGADQEIKLQEALARYSEGRTKPTIQRYKGLGEMDDHQLWETTMDPEHRLMARVSVDDAAEADKIFDMLMGDRVEPRREFIEENAVYSTLDV

> <PDB ID(s) of Target Chain>
4Z2C,4Z2D,4Z2E

> <UniProt (SwissProt) Recommended Name of Target Chain>
DNA gyrase subunit B

> <UniProt (SwissProt) Entry Name of Target Chain>
GYRB_STRPN

> <UniProt (SwissProt) Primary ID of Target Chain>
P0A4L9

> <UniProt (SwissProt) Secondary ID(s) of Target Chain>
P48373

> <UniProt (SwissProt) Alternative ID(s) of Target Chain>


> <UniProt (TrEMBL) Submitted Name of Target Chain>


> <UniProt (TrEMBL) Entry Name of Target Chain>


> <UniProt (TrEMBL) Primary ID of Target Chain>


> <UniProt (TrEMBL) Secondary ID(s) of Target Chain>


> <UniProt (TrEMBL) Alternative ID(s) of Target Chain>


$$$$

  Mrv0541 11231413392D          

 47 51  0  0  0  0            999 V2000
   11.1172    0.2845    0.0000 C   0  0  0  0  0  0  0  0  0  0  0  0
   10.3914    0.6860    0.0000 C   0  0  1  0  0  0  0  0  0  0  0  0
    9.6846    0.2606    0.0000 C   0  0  2  0  0  0  0  0  0  0  0  0
    9.6975   -0.5682    0.0000 C   0  0  2  0  0  0  0  0  0  0  0  0
   10.4234   -0.9698    0.0000 C   0  0  1  0  0  0  0  0  0  0  0  0
   11.1363   -0.5425    0.0000 O   0  0  0  0  0  0  0  0  0  0  0  0
   10.4377   -1.7946    0.0000 O   0  0  0  0  0  0  0  0  0  0  0  0
   11.1573   -2.2059    0.0000 C   0  0  0  0  0  0  0  0  0  0  0  0
   11.1567   -3.0302    0.0000 C   0  0  0  0  0  0  0  0  0  0  0  0
   11.8722   -1.7916    0.0000 C   0  0  0  0  0  0  0  0  0  0  0  0
   12.5865   -2.2093    0.0000 C   0  0  0  0  0  0  0  0  0  0  0  0
   12.5848   -3.0339    0.0000 C   0  0  0  0  0  0  0  0  0  0  0  0
   11.8695   -3.4455    0.0000 C   0  0  0  0  0  0  0  0  0  0  0  0
   11.8683   -4.2660    0.0000 O   0  0  0  0  0  0  0  0  0  0  0  0
   12.5806   -4.6813    0.0000 C   0  0  0  0  0  0  0  0  0  0  0  0
   13.2959   -4.2698    0.0000 C   0  0  0  0  0  0  0  0  0  0  0  0
   13.2987   -3.4430    0.0000 C   0  0  0  0  0  0  0  0  0  0  0  0
   14.0132   -3.0306    0.0000 O   0  0  0  0  0  0  0  0  0  0  0  0
   12.5783   -5.5062    0.0000 O   0  0  0  0  0  0  0  0  0  0  0  0
   14.0092   -4.6841    0.0000 N   0  0  0  0  0  0  0  0  0  0  0  0
   14.0072   -5.5090    0.0000 C   0  0  0  0  0  0  0  0  0  0  0  0
   13.2917   -5.9197    0.0000 O   0  0  0  0  0  0  0  0  0  0  0  0
   14.7205   -5.9232    0.0000 C   0  0  0  0  0  0  0  0  0  0  0  0
   14.7155   -6.7474    0.0000 C   0  0  0  0  0  0  0  0  0  0  0  0
   15.4281   -7.1615    0.0000 C   0  0  0  0  0  0  0  0  0  0  0  0
   16.1445   -6.7508    0.0000 C   0  0  0  0  0  0  0  0  0  0  0  0
   16.1440   -5.9216    0.0000 C   0  0  0  0  0  0  0  0  0  0  0  0
   15.4308   -5.5112    0.0000 C   0  0  0  0  0  0  0  0  0  0  0  0
   16.8585   -7.1641    0.0000 O   0  0  0  0  0  0  0  0  0  0  0  0
   16.8579   -5.5084    0.0000 C   0  0  0  0  0  0  0  0  0  0  0  0
   11.9446    0.3035    0.0000 C   0  0  0  0  0  0  0  0  0  0  0  0
   11.1063    1.1076    0.0000 C   0  0  0  0  0  0  0  0  0  0  0  0
   10.3762    1.5108    0.0000 O   0  0  0  0  0  0  0  0  0  0  0  0
   11.0830    1.9364    0.0000 C   0  0  0  0  0  0  0  0  0  0  0  0
    8.9633    0.6608    0.0000 O   0  0  0  0  0  0  0  0  0  0  0  0
    8.9902   -0.9928    0.0000 O   0  0  0  0  0  0  0  0  0  0  0  0
   10.4413   -3.4412    0.0000 C   0  0  0  0  0  0  0  0  0  0  0  0
   17.5727   -5.9201    0.0000 C   0  0  0  0  0  0  0  0  0  0  0  0
   18.2868   -5.5069    0.0000 C   0  0  0  0  0  0  0  0  0  0  0  0
    8.2689   -0.5924    0.0000 C   0  0  0  0  0  0  0  0  0  0  0  0
    7.5603   -1.0180    0.0000 C   0  0  0  0  0  0  0  0  0  0  0  0
    8.2549    0.2323    0.0000 O   0  0  0  0  0  0  0  0  0  0  0  0
    6.9158   -0.5101    0.0000 N   0  0  0  0  0  0  0  0  0  0  0  0
    6.2302   -0.9689    0.0000 C   0  0  0  0  0  0  0  0  0  0  0  0
    6.4548   -1.7628    0.0000 C   0  0  0  0  0  0  0  0  0  0  0  0
    7.2791   -1.7944    0.0000 C   0  0  0  0  0  0  0  0  0  0  0  0
    5.5133   -0.5546    0.0000 C   0  0  0  0  0  0  0  0  0  0  0  0
 11 10  1  0  0  0  0
 21 23  1  0  0  0  0
 11 12  2  0  0  0  0
 23 24  2  0  0  0  0
  3  4  1  0  0  0  0
 24 25  1  0  0  0  0
 12 13  1  0  0  0  0
 25 26  2  0  0  0  0
  4  5  1  0  0  0  0
 26 27  1  0  0  0  0
  5  6  1  0  0  0  0
 27 28  2  0  0  0  0
 28 23  1  0  0  0  0
 26 29  1  0  0  0  0
  5  7  1  1  0  0  0
 27 30  1  0  0  0  0
  2  1  1  0  0  0  0
  1 31  1  0  0  0  0
  7  8  1  0  0  0  0
  1 32  1  0  0  0  0
 12 17  1  0  0  0  0
  2 33  1  1  0  0  0
 13 14  1  0  0  0  0
 33 34  1  0  0  0  0
 14 15  1  0  0  0  0
  3 35  1  6  0  0  0
 15 16  1  0  0  0  0
  4 36  1  6  0  0  0
 16 17  2  0  0  0  0
  9 37  1  0  0  0  0
  8  9  1  0  0  0  0
 30 38  1  0  0  0  0
 17 18  1  0  0  0  0
 38 39  1  0  0  0  0
  1  6  1  0  0  0  0
 36 40  1  0  0  0  0
 15 19  2  0  0  0  0
 40 41  1  0  0  0  0
  3  2  1  0  0  0  0
 40 42  2  0  0  0  0
 41 43  1  0  0  0  0
 16 20  1  0  0  0  0
  8 10  2  0  0  0  0
 20 21  1  0  0  0  0
  9 13  2  0  0  0  0
 43 44  1  0  0  0  0
 44 45  2  0  0  0  0
 45 46  1  0  0  0  0
 46 41  2  0  0  0  0
 21 22  2  0  0  0  0
 44 47  1  0  0  0  0
M  END
> <From> 
www.bindingDB.org

> <BindingDB Reactant_set_id>
50607661

> <Ligand InChI>
InChI=1S/C34H38N2O11/c1-7-8-18-15-19(10-13-22(18)37)30(40)36-24-25(38)20-11-14-23(17(3)27(20)45-32(24)42)44-33-28(26(39)29(43-6)34(4,5)47-33)46-31(41)21-12-9-16(2)35-21/h9-15,26,28-29,33,35,37-39H,7-8H2,1-6H3,(H,36,40)/t26-,28+,29+,33+/m0/s1

> <Ligand InChI Key>
KCDAVNIYYNEPGO-DBPUXHPHSA-N

> <BindingDB MonomerID>
50330295

> <BindingDB Ligand Name>
(2R,3R,4R,5R)-4-hydroxy-2-(4-hydroxy-3-(4-hydroxy-3-propylbenzamido)-8-methyl-2-oxo-2H-chromen-7-yloxy)-5-methoxy-6,6-dimethyltetrahydro-2H-pyran-3-yl 5-methyl-1H-pyrrole-2-carboxylate::CHEMBL1275897

> <Target Name Assigned by Curator or DataSource>
DNA Gyrase Subunit B

> <Target Source Organism According to Curator or DataSource>
Escherichia coli

> <Ki (nM)>


> <IC50 (nM)>
 140

> <Kd (nM)>


> <EC50 (nM)>


> <kon (M-1-s-1)>


> <koff (s-1)>


> <pH>


> <Temp C>


> <Curation/DataSource>
ChEMBL

> <Article DOI>
10.1128/AAC.01235-07

> <PMID>
18347114

> <PubChem AID>


> <Patent Number>


> <Authors>
Anderle, C; Stieger, M; Burrell, M; Reinelt, S; Maxwell, A; Page, M; Heide, L

> <Institution>
Universit&#228;t T&#252;bingen

> <Link to Ligand in BindingDB>
http://www.bindingdb.org/bind/chemsearch/marvin/MolStructure.jsp?monomerid=50330295

> <Link to Ligand-Target Pair in BindingDB>
http://www.bindingdb.org/jsp/dbsearch/PrimarySearch_ki.jsp?energyterm=kJ/mole&tag=pol&polymerid=2630&target=DNA+Gyrase+Subunit+B&column=ki&startPg=0&Increment=50&submit=Search

> <Link to Ligand-Target Pair in BindingDB>
http://www.bindingdb.org/jsp/dbsearch/PrimarySearch_ki.jsp?energyterm=kJ/mole&tag=r21&monomerid=50330295&enzyme=DNA+Gyrase+Subunit+B&column=ki&startPg=0&Increment=50&submit=Search

> <Ligand HET ID in PDB>


> <PDB ID(s) for Ligand-Target Complex>


> <PubChem CID>
54729438

> <PubChem SID>
123109410

> <ChEBI ID of Ligand>


> <ChEMBL ID of Ligand>
CHEMBL1275897

> <DrugBank ID of Ligand>


> <IUPHAR_GRAC ID of Ligand>


> <KEGG ID of Ligand>


> <ZINC ID of Ligand>
ZINC72136396

> <Number of Protein Chains in Target (>1 implies a multichain complex)>
1

> <BindingDB Target Chain Sequence>
MSNSYDSSSIKVLKGLDAVRKRPGMYIGDTDDGTGLHHMVFEVVDNAIDEALAGHCKEII
VTIHADNSVSVQDDGRGIPTGIHPEEGVSAAEVIMTVLHAGGKFDDNSYKVSGGLHGVGV
SVVNALSQKLELVIQREGKIHRQIYEHGVPQAPLAVTGETEKTGTMVRFWPSLETFTNVT
EFEYEILAKRLRELSFLNSGVSIRLRDKRDGKEDHFHYEGGIKAFVEYLNKNKTPIHPNI
FYFSTEKDGIGVEVALQWNDGFQENIYCFTNNIPQRDGGTHLAGFRAAMTRTLNAYMDKE
GYSKKAKVSATGDDAREGLIAVVSVKVPDPKFSSQTKDKLVSSEVKSAVEQQMNELLAEY
LLENPTDAKIVVGKIIDAARAREAARRAREMTRRKGALDLAGLPGKLADCQERDPALSEL
YLVEGDSAGGSAKQGRNRKNQAILPLKGKILNVEKARFDKMLSSQEVATLITALGCGIGR
DEYNPDKLRYHSIIIMTDADVDGSHIRTLLLTFFYRQMPEIVERGHVYIAQPPLYKVKKG
KQEQYIKDDEAMDQYQISIALDGATLHTNASAPALAGEALEKLVSEYNATQKMINRMERR
YPKAMLKELIYQPTLTEADLSDEQTVTRWVNALVSELNDKEQHGSQWKFDVHTNAEQNLF
EPIVRVRTHGVDTDYPLDHEFITGGEYRRICTLGEKLRGLLEEDAFIERGERRQPVASFE
QALDWLVKESRRGLSIQRYKGLGEMNPEQLWETTMDPESRRMLRVTVKDAIAADQLFTTL
MGDAVEPRRAFIEENALKAANIDI

> <PDB ID(s) of Target Chain>
1KZN,3G7E,3NUH,4DUH,4HYP,4KFG,4PRV,4PRX,4PU9,4WUB,4WUC,4WUD,4XTJ,4ZVI,5L3J,5MMN,5MMO,5MMP,5Z4H,5Z4O,5Z9B,5Z9E,5Z9F,5Z9L,5Z9M,5Z9N,5Z9Q,6ENG,6F86,6F8J,6F94,6F96

> <UniProt (SwissProt) Recommended Name of Target Chain>
DNA gyrase subunit B

> <UniProt (SwissProt) Entry Name of Target Chain>
GYRB_ECOLI

> <UniProt (SwissProt) Primary ID of Target Chain>
P0AES6

> <UniProt (SwissProt) Secondary ID(s) of Target Chain>
O08438,P06982,Q2M811

> <UniProt (SwissProt) Alternative ID(s) of Target Chain>


> <UniProt (TrEMBL) Submitted Name of Target Chain>


> <UniProt (TrEMBL) Entry Name of Target Chain>


> <UniProt (TrEMBL) Primary ID of Target Chain>


> <UniProt (TrEMBL) Secondary ID(s) of Target Chain>


> <UniProt (TrEMBL) Alternative ID(s) of Target Chain>


$$$$

  SciTegic02271514412D

 27 29  0  0  0  0            999 V2000
   20.0839   -2.7405    0.0000 C   0  0
   19.2598   -2.7780    0.0000 C   0  0
   18.8842   -3.5078    0.0000 C   0  0  1  0  0  0
   19.3244   -4.2006    0.0000 C   0  0  1  0  0  0
   20.1485   -4.1631    0.0000 C   0  0
   20.5325   -3.4329    0.0000 N   0  0
   18.0601   -3.5452    0.0000 N   0  0
   17.6156   -2.8502    0.0000 C   0  0
   16.7914   -2.8876    0.0000 C   0  0
   17.9953   -2.1177    0.0000 O   0  0
   21.3567   -3.3955    0.0000 C   0  0
   16.2800   -2.2398    0.0000 C   0  0
   15.5078   -2.5301    0.0000 C   0  0
   15.5453   -3.3543    0.0000 C   0  0
   16.3406   -3.5732    0.0000 N   0  0
   21.8693   -4.0383    0.0000 N   0  0
   22.6416   -3.7481    0.0000 C   0  0
   22.6042   -2.9239    0.0000 C   0  0
   21.8088   -2.7049    0.0000 S   0  0
   23.2489   -2.4091    0.0000 C   0  0
   24.0171   -2.7101    0.0000 O   0  0
   23.1255   -1.5934    0.0000 O   0  0
   14.9005   -3.8690    0.0000 C   0  0
   16.5013   -1.4451    0.0000 Cl  0  0
   14.8190   -2.0760    0.0000 Cl  0  0
   18.9436   -4.9324    0.0000 O   0  0
   18.1194   -4.9686    0.0000 C   0  0
  1  2  1  0
  1  6  1  0
  2  3  1  0
  3  4  1  0
  4  5  1  0
  5  6  1  0
  3  7  1  1
  7  8  1  0
  8  9  1  0
  8 10  2  0
  6 11  1  0
  9 12  2  0
 12 13  1  0
 13 14  2  0
 14 15  1  0
 15  9  1  0
 11 16  2  0
 16 17  1  0
 17 18  2  0
 18 19  1  0
 19 11  1  0
 18 20  1  0
 20 21  1  0
 20 22  2  0
 14 23  1  0
 12 24  1  0
 13 25  1  0
  4 26  1  1
 26 27  1  0
M  END
> <From> 
www.bindingDB.org

> <BindingDB Reactant_set_id>
50271385

> <Ligand InChI>
InChI=1S/C16H18Cl2N4O4S/c1-7-11(17)12(18)13(20-7)14(23)21-8-3-4-22(6-9(8)26-2)16-19-5-10(27-16)15(24)25/h5,8-9,20H,3-4,6H2,1-2H3,(H,21,23)(H,24,25)/t8-,9+/m0/s1

> <Ligand InChI Key>
VJLIVOQJQIHFHR-DTWKUNHWSA-N

> <BindingDB MonomerID>
50047319

> <BindingDB Ligand Name>
CHEMBL3314528

> <Target Name Assigned by Curator or DataSource>
DNA Gyrase Subunit B

> <Target Source Organism According to Curator or DataSource>
Staphylococcus aureus

> <Ki (nM)>


> <IC50 (nM)>
 140

> <Kd (nM)>


> <EC50 (nM)>


> <kon (M-1-s-1)>


> <koff (s-1)>


> <pH>


> <Temp C>


> <Curation/DataSource>
ChEMBL

> <Article DOI>
10.1021/jm500462x

> <PMID>
24959892

> <PubChem AID>


> <Patent Number>


> <Authors>
Basarab, GS; Hill, PJ; Garner, CE; Hull, K; Green, O; Sherer, BA; Dangel, PB; Manchester, JI; Bist, S; Hauck, S; Zhou, F; Uria-Nickelsen, M; Illingworth, R; Alm, R; Rooney, M; Eakin, AE

> <Institution>
AstraZeneca

> <Link to Ligand in BindingDB>
http://www.bindingdb.org/bind/chemsearch/marvin/MolStructure.jsp?monomerid=50047319

> <Link to Ligand-Target Pair in BindingDB>
http://www.bindingdb.org/jsp/dbsearch/PrimarySearch_ki.jsp?energyterm=kJ/mole&tag=pol&polymerid=2626&target=DNA+Gyrase+Subunit+B&column=ki&startPg=0&Increment=50&submit=Search

> <Link to Ligand-Target Pair in BindingDB>
http://www.bindingdb.org/jsp/dbsearch/PrimarySearch_ki.jsp?energyterm=kJ/mole&tag=r21&monomerid=50047319&enzyme=DNA+Gyrase+Subunit+B&column=ki&startPg=0&Increment=50&submit=Search

> <Ligand HET ID in PDB>


> <PDB ID(s) for Ligand-Target Complex>


> <PubChem CID>
86643333

> <PubChem SID>
103977999

> <ChEBI ID of Ligand>


> <ChEMBL ID of Ligand>
CHEMBL33620

> <DrugBank ID of Ligand>


> <IUPHAR_GRAC ID of Ligand>


> <KEGG ID of Ligand>


> <ZINC ID of Ligand>
ZINC03930015

> <Number of Protein Chains in Target (>1 implies a multichain complex)>
1

> <BindingDB Target Chain Sequence>
MVTALSDVNNTDNYGAGQIQVLEGLEAVRKRPGMYIGSTSERGLHHLVWEIVDNSIDEALAGYANQIEVVIEKDNWIKVTDNGRGIPVDIQEKMGRPAVEVILTVLHAGGKFGGGGYKVSGGLHGVGSSVVNALSQDLEVYVHRNETIYHQAYKKGVPQFDLKEVGTTDKTGTVIRFKADGEIFTETTVYNYETLQQRIRELAFLNKGIQITLRDERDEENVREDSYHYEGGIKSYVELLNENKEPIHDEPIYIHQSKDDIEVEIAIQYNSGYATNLLTYANNIHTYEGGTHEDGFKRALTRVLNSYGLSSKIMKEEKDRLSGEDTREGMTAIISIKHGDPQFEGQTKTKLGNSEVRQVVDKLFSEHFERFLYENPQVARTVVEKGIMAARARVAAKKAREVTRRKSALDVASLPGKLADCSSKSPEECEIFLVEGDSAGGSTKSGRDSRTQAILPLRGKILNVEKARLDRILNNNEIRQMITAFGTGIGGDFDLAKARYHKIVIMTDADVDGAHIRTLLLTFFYRFMRPLIEAGYVYIAQPPLYKLTQGKQKYYVYNDRELDKLKSELNPTPKWSIARYKGLGEMNADQLWETTMNPEHRALLQVKLEDAIEADQTFEMLMGDVVENRRQFIEDNAVYANLDF

> <PDB ID(s) of Target Chain>


> <UniProt (SwissProt) Recommended Name of Target Chain>
DNA gyrase subunit B

> <UniProt (SwissProt) Entry Name of Target Chain>
GYRB_STAAU

> <UniProt (SwissProt) Primary ID of Target Chain>
P0A0K8

> <UniProt (SwissProt) Secondary ID(s) of Target Chain>
P20832

> <UniProt (SwissProt) Alternative ID(s) of Target Chain>


> <UniProt (TrEMBL) Submitted Name of Target Chain>


> <UniProt (TrEMBL) Entry Name of Target Chain>


> <UniProt (TrEMBL) Primary ID of Target Chain>


> <UniProt (TrEMBL) Secondary ID(s) of Target Chain>


> <UniProt (TrEMBL) Alternative ID(s) of Target Chain>


$$$$

  SciTegic12211722582D

 26 28  0  0  0  0            999 V2000
   10.2005  -11.1426    0.0000 O   0  0
    9.7919  -10.4335    0.0000 C   0  0
    8.9706  -10.4335    0.0000 C   0  0
    8.4864   -9.7703    0.0000 C   0  0
    7.7091  -10.0249    0.0000 C   0  0
    7.0459   -9.5407    0.0000 Br  0  0
    7.7091  -10.8421    0.0000 C   0  0
    7.0459  -11.3264    0.0000 Br  0  0
    8.4864  -11.0968    0.0000 N   0  0
   10.2005   -9.7244    0.0000 N   0  0
   11.0219   -9.7244    0.0000 C   0  0
   11.5020  -10.3877    0.0000 N   0  0
   12.2834  -10.1330    0.0000 C   0  0
   12.9924  -10.5416    0.0000 C   0  0
   13.7015  -10.1330    0.0000 C   0  0
   13.7015   -9.3117    0.0000 C   0  0
   14.4106   -8.9031    0.0000 N   0  0
   15.1238   -9.3117    0.0000 C   0  0
   15.1238  -10.1330    0.0000 C   0  0
   15.8329  -10.5416    0.0000 C   0  0
   16.5420  -10.1330    0.0000 O   0  0
   15.8329  -11.3629    0.0000 O   0  0
   15.8329   -8.9031    0.0000 O   0  0
   12.9924   -8.9031    0.0000 C   0  0
   12.2834   -9.3117    0.0000 C   0  0
   11.5020   -9.0612    0.0000 S   0  0
  1  2  2  0
  2  3  1  0
  3  4  2  0
  4  5  1  0
  5  6  1  0
  5  7  2  0
  7  8  1  0
  7  9  1  0
  3  9  1  0
  2 10  1  0
 10 11  1  0
 11 12  2  0
 12 13  1  0
 13 14  2  0
 14 15  1  0
 15 16  2  0
 16 17  1  0
 17 18  1  0
 18 19  1  0
 19 20  1  0
 20 21  1  0
 20 22  2  0
 18 23  2  0
 16 24  1  0
 24 25  2  0
 13 25  1  0
 25 26  1  0
 11 26  1  0
M  END
> <From> 
www.bindingDB.org

> <BindingDB Reactant_set_id>
50524129

> <Ligand InChI>
InChI=1S/C15H10Br2N4O4S/c16-7-4-9(19-13(7)17)14(25)21-15-20-8-2-1-6(3-10(8)26-15)18-11(22)5-12(23)24/h1-4,19H,5H2,(H,18,22)(H,23,24)(H,20,21,25)

> <Ligand InChI Key>
KCVOBGFSEGXGIM-UHFFFAOYSA-N

> <BindingDB MonomerID>
50198320

> <BindingDB Ligand Name>
CHEMBL3936438

> <Target Name Assigned by Curator or DataSource>
DNA Gyrase Subunit B

> <Target Source Organism According to Curator or DataSource>
Escherichia coli

> <Ki (nM)>


> <IC50 (nM)>
 140

> <Kd (nM)>


> <EC50 (nM)>


> <kon (M-1-s-1)>


> <koff (s-1)>


> <pH>


> <Temp C>


> <Curation/DataSource>
ChEMBL

> <Article DOI>
10.1021/acs.jmedchem.6b00864

> <PMID>
27541007

> <PubChem AID>


> <Patent Number>


> <Authors>
Gjorgjieva, M; Tomaic, T; Barancokova, M; Katsamakas, S; Ila, J; Tammela, P; Peterlin Maic, L; Kikelj, D

> <Institution>
University of Ljubljana

> <Link to Ligand in BindingDB>
http://www.bindingdb.org/bind/chemsearch/marvin/MolStructure.jsp?monomerid=50198320

> <Link to Ligand-Target Pair in BindingDB>
http://www.bindingdb.org/jsp/dbsearch/PrimarySearch_ki.jsp?energyterm=kJ/mole&tag=pol&polymerid=2630&target=DNA+Gyrase+Subunit+B&column=ki&startPg=0&Increment=50&submit=Search

> <Link to Ligand-Target Pair in BindingDB>
http://www.bindingdb.org/jsp/dbsearch/PrimarySearch_ki.jsp?energyterm=kJ/mole&tag=r21&monomerid=50198320&enzyme=DNA+Gyrase+Subunit+B&column=ki&startPg=0&Increment=50&submit=Search

> <Ligand HET ID in PDB>


> <PDB ID(s) for Ligand-Target Complex>


> <PubChem CID>
134148795

> <PubChem SID>
375978204

> <ChEBI ID of Ligand>


> <ChEMBL ID of Ligand>


> <DrugBank ID of Ligand>


> <IUPHAR_GRAC ID of Ligand>


> <KEGG ID of Ligand>


> <ZINC ID of Ligand>


> <Number of Protein Chains in Target (>1 implies a multichain complex)>
1

> <BindingDB Target Chain Sequence>
MSNSYDSSSIKVLKGLDAVRKRPGMYIGDTDDGTGLHHMVFEVVDNAIDEALAGHCKEII
VTIHADNSVSVQDDGRGIPTGIHPEEGVSAAEVIMTVLHAGGKFDDNSYKVSGGLHGVGV
SVVNALSQKLELVIQREGKIHRQIYEHGVPQAPLAVTGETEKTGTMVRFWPSLETFTNVT
EFEYEILAKRLRELSFLNSGVSIRLRDKRDGKEDHFHYEGGIKAFVEYLNKNKTPIHPNI
FYFSTEKDGIGVEVALQWNDGFQENIYCFTNNIPQRDGGTHLAGFRAAMTRTLNAYMDKE
GYSKKAKVSATGDDAREGLIAVVSVKVPDPKFSSQTKDKLVSSEVKSAVEQQMNELLAEY
LLENPTDAKIVVGKIIDAARAREAARRAREMTRRKGALDLAGLPGKLADCQERDPALSEL
YLVEGDSAGGSAKQGRNRKNQAILPLKGKILNVEKARFDKMLSSQEVATLITALGCGIGR
DEYNPDKLRYHSIIIMTDADVDGSHIRTLLLTFFYRQMPEIVERGHVYIAQPPLYKVKKG
KQEQYIKDDEAMDQYQISIALDGATLHTNASAPALAGEALEKLVSEYNATQKMINRMERR
YPKAMLKELIYQPTLTEADLSDEQTVTRWVNALVSELNDKEQHGSQWKFDVHTNAEQNLF
EPIVRVRTHGVDTDYPLDHEFITGGEYRRICTLGEKLRGLLEEDAFIERGERRQPVASFE
QALDWLVKESRRGLSIQRYKGLGEMNPEQLWETTMDPESRRMLRVTVKDAIAADQLFTTL
MGDAVEPRRAFIEENALKAANIDI

> <PDB ID(s) of Target Chain>
1KZN,3G7E,3NUH,4DUH,4HYP,4KFG,4PRV,4PRX,4PU9,4WUB,4WUC,4WUD,4XTJ,4ZVI,5L3J,5MMN,5MMO,5MMP,5Z4H,5Z4O,5Z9B,5Z9E,5Z9F,5Z9L,5Z9M,5Z9N,5Z9Q,6ENG,6F86,6F8J,6F94,6F96

> <UniProt (SwissProt) Recommended Name of Target Chain>
DNA gyrase subunit B

> <UniProt (SwissProt) Entry Name of Target Chain>
GYRB_ECOLI

> <UniProt (SwissProt) Primary ID of Target Chain>
P0AES6

> <UniProt (SwissProt) Secondary ID(s) of Target Chain>
O08438,P06982,Q2M811

> <UniProt (SwissProt) Alternative ID(s) of Target Chain>


> <UniProt (TrEMBL) Submitted Name of Target Chain>


> <UniProt (TrEMBL) Entry Name of Target Chain>


> <UniProt (TrEMBL) Primary ID of Target Chain>


> <UniProt (TrEMBL) Secondary ID(s) of Target Chain>


> <UniProt (TrEMBL) Alternative ID(s) of Target Chain>


$$$$

  Mrv0541 11241412072D          

 33 36  0  0  0  0            999 V2000
   -1.4878   -5.0777    0.0000 C   0  0  0  0  0  0  0  0  0  0  0  0
   -0.7713   -4.6644    0.0000 C   0  0  0  0  0  0  0  0  0  0  0  0
   -0.7742   -3.8338    0.0000 C   0  0  0  0  0  0  0  0  0  0  0  0
   -1.4896   -3.4247    0.0000 N   0  0  0  0  0  0  0  0  0  0  0  0
   -2.2026   -4.6648    0.0000 C   0  0  0  0  0  0  0  0  0  0  0  0
   -2.2013   -3.8359    0.0000 C   0  0  0  0  0  0  0  0  0  0  0  0
   -2.9893   -3.5786    0.0000 N   0  0  0  0  0  0  0  0  0  0  0  0
   -3.4776   -4.2485    0.0000 C   0  0  0  0  0  0  0  0  0  0  0  0
   -2.9913   -4.9197    0.0000 C   0  0  0  0  0  0  0  0  0  0  0  0
   -0.0598   -5.0750    0.0000 C   0  0  0  0  0  0  0  0  0  0  0  0
   -0.0598   -5.9011    0.0000 C   0  0  0  0  0  0  0  0  0  0  0  0
    0.6545   -6.3124    0.0000 N   0  0  0  0  0  0  0  0  0  0  0  0
    1.3693   -5.8987    0.0000 C   0  0  0  0  0  0  0  0  0  0  0  0
    1.3653   -5.0694    0.0000 C   0  0  0  0  0  0  0  0  0  0  0  0
    0.6505   -4.6619    0.0000 C   0  0  0  0  0  0  0  0  0  0  0  0
    2.0803   -4.6519    0.0000 C   0  0  0  0  0  0  0  0  0  0  0  0
    2.7968   -5.0608    0.0000 O   0  0  0  0  0  0  0  0  0  0  0  0
    2.0761   -3.8269    0.0000 O   0  0  0  0  0  0  0  0  0  0  0  0
   -1.4856   -5.8990    0.0000 N   0  0  0  0  0  0  0  0  0  0  0  0
   -2.1532   -6.3837    0.0000 C   0  0  0  0  0  0  0  0  0  0  0  0
   -1.8984   -7.1684    0.0000 C   0  0  0  0  0  0  0  0  0  0  0  0
   -1.0734   -7.1686    0.0000 C   0  0  0  0  0  0  0  0  0  0  0  0
   -0.8184   -6.3841    0.0000 N   0  0  0  0  0  0  0  0  0  0  0  0
   -0.5885   -7.8362    0.0000 C   0  0  0  0  0  0  0  0  0  0  0  0
   -0.9242   -8.5898    0.0000 F   0  0  0  0  0  0  0  0  0  0  0  0
    0.2320   -7.7500    0.0000 F   0  0  0  0  0  0  0  0  0  0  0  0
   -0.1833   -8.5458    0.0000 F   0  0  0  0  0  0  0  0  0  0  0  0
   -4.3026   -4.2473    0.0000 C   0  0  0  0  0  0  0  0  0  0  0  0
   -4.7141   -3.5322    0.0000 N   0  0  0  0  0  0  0  0  0  0  0  0
   -4.7161   -4.9611    0.0000 O   0  0  0  0  0  0  0  0  0  0  0  0
   -5.5391   -3.5310    0.0000 C   0  0  0  0  0  0  0  0  0  0  0  0
   -5.9526   -4.2449    0.0000 C   0  0  0  0  0  0  0  0  0  0  0  0
   -5.9505   -2.8159    0.0000 C   0  0  0  0  0  0  0  0  0  0  0  0
  3  4  1  0  0  0  0
  6  7  1  0  0  0  0
  7  8  1  0  0  0  0
 16 17  1  0  0  0  0
 16 18  2  0  0  0  0
 14 16  1  0  0  0  0
 19 20  1  0  0  0  0
  8  9  2  0  0  0  0
  9  5  1  0  0  0  0
  4  6  2  0  0  0  0
  5  6  1  0  0  0  0
 10 11  2  0  0  0  0
 20 21  2  0  0  0  0
 21 22  1  0  0  0  0
 22 23  2  0  0  0  0
 23 19  1  0  0  0  0
  1 19  1  0  0  0  0
  1  2  1  0  0  0  0
 22 24  1  0  0  0  0
 11 12  1  0  0  0  0
 24 25  1  0  0  0  0
  5  1  2  0  0  0  0
 24 26  1  0  0  0  0
 12 13  2  0  0  0  0
 24 27  1  0  0  0  0
  2  3  2  0  0  0  0
  8 28  1  0  0  0  0
 13 14  1  0  0  0  0
 28 29  1  0  0  0  0
 28 30  2  0  0  0  0
 14 15  2  0  0  0  0
 29 31  1  0  0  0  0
 15 10  1  0  0  0  0
 31 32  1  0  0  0  0
  2 10  1  0  0  0  0
 31 33  1  0  0  0  0
M  END
> <From> 
www.bindingDB.org

> <BindingDB Reactant_set_id>
50945991

> <Ligand InChI>
InChI=1S/C21H17F3N6O3/c1-10(2)27-19(31)15-6-13-17(30-4-3-16(29-30)21(22,23)24)14(9-26-18(13)28-15)11-5-12(20(32)33)8-25-7-11/h3-10H,1-2H3,(H,26,28)(H,27,31)(H,32,33)

> <Ligand InChI Key>
UYBAOGSSQQTAHD-UHFFFAOYSA-N

> <BindingDB MonomerID>
50388094

> <BindingDB Ligand Name>
CHEMBL2059198

> <Target Name Assigned by Curator or DataSource>
DNA Gyrase Subunit B

> <Target Source Organism According to Curator or DataSource>
Staphylococcus aureus

> <Ki (nM)>


> <IC50 (nM)>
 147

> <Kd (nM)>


> <EC50 (nM)>


> <kon (M-1-s-1)>


> <koff (s-1)>


> <pH>


> <Temp C>


> <Curation/DataSource>
ChEMBL

> <Article DOI>
10.1016/j.bmcl.2012.05.128

> <PMID>
22814212

> <PubChem AID>


> <Patent Number>


> <Authors>
Manchester, JI; Dussault, DD; Rose, JA; Boriack-Sjodin, PA; Uria-Nickelsen, M; Ioannidis, G; Bist, S; Fleming, P; Hull, KG

> <Institution>
AstraZeneca

> <Link to Ligand in BindingDB>
http://www.bindingdb.org/bind/chemsearch/marvin/MolStructure.jsp?monomerid=50388094

> <Link to Ligand-Target Pair in BindingDB>
http://www.bindingdb.org/jsp/dbsearch/PrimarySearch_ki.jsp?energyterm=kJ/mole&tag=pol&polymerid=2626&target=DNA+Gyrase+Subunit+B&column=ki&startPg=0&Increment=50&submit=Search

> <Link to Ligand-Target Pair in BindingDB>
http://www.bindingdb.org/jsp/dbsearch/PrimarySearch_ki.jsp?energyterm=kJ/mole&tag=r21&monomerid=50388094&enzyme=DNA+Gyrase+Subunit+B&column=ki&startPg=0&Increment=50&submit=Search

> <Ligand HET ID in PDB>


> <PDB ID(s) for Ligand-Target Complex>


> <PubChem CID>
62705687

> <PubChem SID>
160867177

> <ChEBI ID of Ligand>


> <ChEMBL ID of Ligand>
CHEMBL2059198

> <DrugBank ID of Ligand>


> <IUPHAR_GRAC ID of Ligand>


> <KEGG ID of Ligand>


> <ZINC ID of Ligand>
ZINC84688500

> <Number of Protein Chains in Target (>1 implies a multichain complex)>
1

> <BindingDB Target Chain Sequence>
MVTALSDVNNTDNYGAGQIQVLEGLEAVRKRPGMYIGSTSERGLHHLVWEIVDNSIDEALAGYANQIEVVIEKDNWIKVTDNGRGIPVDIQEKMGRPAVEVILTVLHAGGKFGGGGYKVSGGLHGVGSSVVNALSQDLEVYVHRNETIYHQAYKKGVPQFDLKEVGTTDKTGTVIRFKADGEIFTETTVYNYETLQQRIRELAFLNKGIQITLRDERDEENVREDSYHYEGGIKSYVELLNENKEPIHDEPIYIHQSKDDIEVEIAIQYNSGYATNLLTYANNIHTYEGGTHEDGFKRALTRVLNSYGLSSKIMKEEKDRLSGEDTREGMTAIISIKHGDPQFEGQTKTKLGNSEVRQVVDKLFSEHFERFLYENPQVARTVVEKGIMAARARVAAKKAREVTRRKSALDVASLPGKLADCSSKSPEECEIFLVEGDSAGGSTKSGRDSRTQAILPLRGKILNVEKARLDRILNNNEIRQMITAFGTGIGGDFDLAKARYHKIVIMTDADVDGAHIRTLLLTFFYRFMRPLIEAGYVYIAQPPLYKLTQGKQKYYVYNDRELDKLKSELNPTPKWSIARYKGLGEMNADQLWETTMNPEHRALLQVKLEDAIEADQTFEMLMGDVVENRRQFIEDNAVYANLDF

> <PDB ID(s) of Target Chain>


> <UniProt (SwissProt) Recommended Name of Target Chain>
DNA gyrase subunit B

> <UniProt (SwissProt) Entry Name of Target Chain>
GYRB_STAAU

> <UniProt (SwissProt) Primary ID of Target Chain>
P0A0K8

> <UniProt (SwissProt) Secondary ID(s) of Target Chain>
P20832

> <UniProt (SwissProt) Alternative ID(s) of Target Chain>


> <UniProt (TrEMBL) Submitted Name of Target Chain>


> <UniProt (TrEMBL) Entry Name of Target Chain>


> <UniProt (TrEMBL) Primary ID of Target Chain>


> <UniProt (TrEMBL) Secondary ID(s) of Target Chain>


> <UniProt (TrEMBL) Alternative ID(s) of Target Chain>


$$$$

  Mrv0541 11241408262D          

 28 31  0  0  0  0            999 V2000
    8.4277  -14.9500    0.0000 C   0  0  0  0  0  0  0  0  0  0  0  0
    8.4266  -15.7773    0.0000 C   0  0  0  0  0  0  0  0  0  0  0  0
    9.1414  -16.1902    0.0000 C   0  0  0  0  0  0  0  0  0  0  0  0
    9.1396  -14.5372    0.0000 C   0  0  0  0  0  0  0  0  0  0  0  0
   10.6463  -14.6923    0.0000 N   0  0  0  0  0  0  0  0  0  0  0  0
    9.8550  -14.9463    0.0000 C   0  0  0  0  0  0  0  0  0  0  0  0
    9.8532  -15.7781    0.0000 N   0  0  0  0  0  0  0  0  0  0  0  0
   10.6443  -16.0355    0.0000 C   0  0  0  0  0  0  0  0  0  0  0  0
   11.1323  -15.3619    0.0000 C   0  0  0  0  0  0  0  0  0  0  0  0
    7.7153  -14.5378    0.0000 C   0  0  0  0  0  0  0  0  0  0  0  0
    7.7164  -13.7117    0.0000 C   0  0  0  0  0  0  0  0  0  0  0  0
    7.0027  -13.2994    0.0000 N   0  0  0  0  0  0  0  0  0  0  0  0
    6.2873  -13.7122    0.0000 C   0  0  0  0  0  0  0  0  0  0  0  0
    6.2902  -14.5414    0.0000 C   0  0  0  0  0  0  0  0  0  0  0  0
    7.0045  -14.9499    0.0000 C   0  0  0  0  0  0  0  0  0  0  0  0
    9.1434  -17.0124    0.0000 C   0  0  0  0  0  0  0  0  0  0  0  0
    8.4275  -17.4247    0.0000 N   0  0  0  0  0  0  0  0  0  0  0  0
    8.4276  -18.2490    0.0000 C   0  0  0  0  0  0  0  0  0  0  0  0
    9.1429  -18.6619    0.0000 C   0  0  0  0  0  0  0  0  0  0  0  0
    9.8595  -18.2446    0.0000 C   0  0  0  0  0  0  0  0  0  0  0  0
    9.8558  -17.4217    0.0000 N   0  0  0  0  0  0  0  0  0  0  0  0
   11.9573  -15.3616    0.0000 N   0  0  0  0  0  0  0  0  0  0  0  0
   12.3695  -14.6470    0.0000 C   0  0  0  0  0  0  0  0  0  0  0  0
   13.1945  -14.6466    0.0000 N   0  0  0  0  0  0  0  0  0  0  0  0
   11.9568  -13.9327    0.0000 O   0  0  0  0  0  0  0  0  0  0  0  0
   13.6073  -15.3609    0.0000 C   0  0  0  0  0  0  0  0  0  0  0  0
   14.4323  -15.3606    0.0000 C   0  0  0  0  0  0  0  0  0  0  0  0
    9.1444  -19.4869    0.0000 Cl  0  0  0  0  0  0  0  0  0  0  0  0
 13 14  2  0  0  0  0
  1  2  1  0  0  0  0
 14 15  1  0  0  0  0
 15 10  2  0  0  0  0
  1 10  1  0  0  0  0
  6  4  1  0  0  0  0
  5  6  2  0  0  0  0
 16 17  2  0  0  0  0
  7  8  1  0  0  0  0
 17 18  1  0  0  0  0
  8  9  2  0  0  0  0
 18 19  2  0  0  0  0
  9  5  1  0  0  0  0
 19 20  1  0  0  0  0
  4  1  2  0  0  0  0
 20 21  2  0  0  0  0
 21 16  1  0  0  0  0
  3 16  1  0  0  0  0
  6  7  1  0  0  0  0
  9 22  1  0  0  0  0
 10 11  1  0  0  0  0
 22 23  1  0  0  0  0
 23 24  1  0  0  0  0
 11 12  2  0  0  0  0
 23 25  2  0  0  0  0
  2  3  2  0  0  0  0
 24 26  1  0  0  0  0
 12 13  1  0  0  0  0
 26 27  1  0  0  0  0
  3  7  1  0  0  0  0
 19 28  1  0  0  0  0
M  END
> <From> 
www.bindingDB.org

> <BindingDB Reactant_set_id>
50904821

> <Ligand InChI>
InChI=1S/C19H16ClN7O/c1-2-22-19(28)26-16-11-27-15(18-23-9-14(20)10-24-18)6-13(7-17(27)25-16)12-4-3-5-21-8-12/h3-11H,2H2,1H3,(H2,22,26,28)

> <Ligand InChI Key>
LXKRVXJCHWCIQA-UHFFFAOYSA-N

> <BindingDB MonomerID>
50378430

> <BindingDB Ligand Name>
CHEMBL568019

> <Target Name Assigned by Curator or DataSource>
DNA gyrase subunit B

> <Target Source Organism According to Curator or DataSource>
Streptococcus pneumoniae

> <Ki (nM)>


> <IC50 (nM)>
 149

> <Kd (nM)>


> <EC50 (nM)>


> <kon (M-1-s-1)>


> <koff (s-1)>


> <pH>


> <Temp C>


> <Curation/DataSource>
ChEMBL

> <Article DOI>
10.1016/j.bmcl.2009.07.141

> <PMID>
19683922

> <PubChem AID>


> <Patent Number>


> <Authors>
Starr, JT; Sciotti, RJ; Hanna, DL; Huband, MD; Mullins, LM; Cai, H; Gage, JW; Lockard, M; Rauckhorst, MR; Owen, RM; Lall, MS; Tomilo, M; Chen, H; McCurdy, SP; Barbachyn, MR

> <Institution>
Pfizer Inc.

> <Link to Ligand in BindingDB>
http://www.bindingdb.org/bind/chemsearch/marvin/MolStructure.jsp?monomerid=50378430

> <Link to Ligand-Target Pair in BindingDB>
http://www.bindingdb.org/jsp/dbsearch/PrimarySearch_ki.jsp?energyterm=kJ/mole&tag=pol&polymerid=50005944&target=DNA+gyrase+subunit+B&column=ki&startPg=0&Increment=50&submit=Search

> <Link to Ligand-Target Pair in BindingDB>
http://www.bindingdb.org/jsp/dbsearch/PrimarySearch_ki.jsp?energyterm=kJ/mole&tag=r21&monomerid=50378430&enzyme=DNA+gyrase+subunit+B&column=ki&startPg=0&Increment=50&submit=Search

> <Ligand HET ID in PDB>


> <PDB ID(s) for Ligand-Target Complex>


> <PubChem CID>
45484779

> <PubChem SID>
160857513

> <ChEBI ID of Ligand>


> <ChEMBL ID of Ligand>
CHEMBL568019

> <DrugBank ID of Ligand>


> <IUPHAR_GRAC ID of Ligand>


> <KEGG ID of Ligand>


> <ZINC ID of Ligand>
ZINC45257058

> <Number of Protein Chains in Target (>1 implies a multichain complex)>
1

> <BindingDB Target Chain Sequence>
MTEEIKNLQAQDYDASQIQVLEGLEAVRMRPGMYIGSTSKEGLHHLVWEIVDNSIDEALAGFASHIQVFIEPDDSITVVDDGRGIPVDIQEKTGRPAVETVFTVLHAGGKFGGGGYKVSGGLHGVGSSVVNALSTQLDVHVHKNGKIHYQEYRRGHVVADLEIVGDTDKTGTTVHFTPDPKIFTETTIFDFDKLNKRIQELAFLNRGLQISITDKRQGLEQTKHYHYEGGIASYVEYINENKDVIFDTPIYTDGEMDDITVEVAMQYTTGYHENVMSFANNIHTHEGGTHEQGFRTALTRVINDYARKNKLLKDNEDNLTGEDVREGLTAVISVKHPNPQFEGQTKTKLGNSEVVKITNRLFSEAFSDFLMENPQIAKRIVEKGILAAKARVAAKRAREVTRKKSGLEISNLPGKLADCSSNNPAETELFIVEGDSAGGSAKSGRNREFQAILPIRGKILNVEKASMDKILANEEIRSLFTAMGTGFGAEFDVSKARYQKLVLMTDADVDGAHIRTLLLTLIYRYMKPILEAGYVYIAQPPIYGVKVGSEIKEYIQPGADQEIKLQEALARYSEGRTKPTIQRYKGLGEMDDHQLWETTMDPEHRLMARVSVDDAAEADKIFDMLMGDRVEPRREFIEENAVYSTLDV

> <PDB ID(s) of Target Chain>
4Z2C,4Z2D,4Z2E

> <UniProt (SwissProt) Recommended Name of Target Chain>
DNA gyrase subunit B

> <UniProt (SwissProt) Entry Name of Target Chain>
GYRB_STRPN

> <UniProt (SwissProt) Primary ID of Target Chain>
P0A4L9

> <UniProt (SwissProt) Secondary ID(s) of Target Chain>
P48373

> <UniProt (SwissProt) Alternative ID(s) of Target Chain>


> <UniProt (TrEMBL) Submitted Name of Target Chain>


> <UniProt (TrEMBL) Entry Name of Target Chain>


> <UniProt (TrEMBL) Primary ID of Target Chain>


> <UniProt (TrEMBL) Secondary ID(s) of Target Chain>


> <UniProt (TrEMBL) Alternative ID(s) of Target Chain>


$$$$

  Mrv0541 11231422262D          

 27 29  0  0  0  0            999 V2000
   16.3625    0.9167    0.0000 N   0  0  0  0  0  0  0  0  0  0  0  0
   15.6891    1.4034    0.0000 C   0  0  0  0  0  0  0  0  0  0  0  0
   15.9458    2.1917    0.0000 C   0  0  0  0  0  0  0  0  0  0  0  0
   16.7750    2.1917    0.0000 C   0  0  0  0  0  0  0  0  0  0  0  0
   17.0316    1.4029    0.0000 C   0  0  0  0  0  0  0  0  0  0  0  0
   14.9047    1.1478    0.0000 C   0  0  0  0  0  0  0  0  0  0  0  0
   17.7484    0.9946    0.0000 C   0  0  0  0  0  0  0  0  0  0  0  0
   17.7533    0.1696    0.0000 O   0  0  0  0  0  0  0  0  0  0  0  0
   18.4605    1.4113    0.0000 N   0  0  0  0  0  0  0  0  0  0  0  0
   19.1774    1.0030    0.0000 C   0  0  0  0  0  0  0  0  0  0  0  0
   19.1785    0.1759    0.0000 C   0  0  0  0  0  0  0  0  0  0  0  0
   19.8913   -0.2324    0.0000 C   0  0  0  0  0  0  0  0  0  0  0  0
   20.6058    0.1808    0.0000 N   0  0  0  0  0  0  0  0  0  0  0  0
   20.6029    1.0068    0.0000 C   0  0  0  0  0  0  0  0  0  0  0  0
   19.8855    1.4196    0.0000 C   0  0  0  0  0  0  0  0  0  0  0  0
   21.3211   -0.2302    0.0000 C   0  0  0  0  0  0  0  0  0  0  0  0
   21.3192   -1.0553    0.0000 N   0  0  0  0  0  0  0  0  0  0  0  0
   22.0337   -1.4662    0.0000 C   0  0  0  0  0  0  0  0  0  0  0  0
   22.7483   -1.0521    0.0000 C   0  0  0  0  0  0  0  0  0  0  0  0
   22.7439   -0.2229    0.0000 C   0  0  0  0  0  0  0  0  0  0  0  0
   22.0289    0.1843    0.0000 C   0  0  0  0  0  0  0  0  0  0  0  0
   22.0350   -2.2912    0.0000 Cl  0  0  0  0  0  0  0  0  0  0  0  0
   23.4561    0.1936    0.0000 C   0  0  0  0  0  0  0  0  0  0  0  0
   24.1728   -0.2148    0.0000 N   0  0  0  0  0  0  0  0  0  0  0  0
   23.4514    1.0186    0.0000 O   0  0  0  0  0  0  0  0  0  0  0  0
   15.4637    2.8575    0.0000 C   0  0  0  0  0  0  0  0  0  0  0  0
   14.9790    3.5251    0.0000 N   0  0  0  0  0  0  0  0  0  0  0  0
 10 15  1  0  0  0  0
 11 12  1  0  0  0  0
 12 13  1  0  0  0  0
 13 14  1  0  0  0  0
 14 15  1  0  0  0  0
  1  2  1  0  0  0  0
 13 16  1  0  0  0  0
  7  8  2  0  0  0  0
 16 17  2  0  0  0  0
  3  4  1  0  0  0  0
 17 18  1  0  0  0  0
  7  9  1  0  0  0  0
 18 19  2  0  0  0  0
  4  5  2  0  0  0  0
 19 20  1  0  0  0  0
  9 10  1  0  0  0  0
 20 21  2  0  0  0  0
 21 16  1  0  0  0  0
 10 11  1  0  0  0  0
 18 22  1  0  0  0  0
  5  1  1  0  0  0  0
 20 23  1  0  0  0  0
  2  3  2  0  0  0  0
 23 24  1  0  0  0  0
  2  6  1  0  0  0  0
 23 25  2  0  0  0  0
  5  7  1  0  0  0  0
 26 27  3  0  0  0  0
  3 26  1  0  0  0  0
M  END
> <From> 
www.bindingDB.org

> <BindingDB Reactant_set_id>
50705122

> <Ligand InChI>
InChI=1S/C18H19ClN6O2/c1-10-12(9-20)6-14(22-10)18(27)23-13-2-4-25(5-3-13)16-8-11(17(21)26)7-15(19)24-16/h6-8,13,22H,2-5H2,1H3,(H2,21,26)(H,23,27)

> <Ligand InChI Key>
HEUQZADPPVCSIE-UHFFFAOYSA-N

> <BindingDB MonomerID>
50358844

> <BindingDB Ligand Name>
CHEMBL1923429

> <Target Name Assigned by Curator or DataSource>
DNA Gyrase Subunit B

> <Target Source Organism According to Curator or DataSource>
Staphylococcus aureus

> <Ki (nM)>


> <IC50 (nM)>
 150

> <Kd (nM)>


> <EC50 (nM)>


> <kon (M-1-s-1)>


> <koff (s-1)>


> <pH>


> <Temp C>


> <Curation/DataSource>
ChEMBL

> <Article DOI>
10.1016/j.bmcl.2011.10.010

> <PMID>
22041057

> <PubChem AID>


> <Patent Number>


> <Authors>
Sherer, BA; Hull, K; Green, O; Basarab, G; Hauck, S; Hill, P; Loch, JT; Mullen, G; Bist, S; Bryant, J; Boriack-Sjodin, A; Read, J; DeGrace, N; Uria-Nickelsen, M; Illingworth, RN; Eakin, AE

> <Institution>
AstraZeneca R&amp;D Boston

> <Link to Ligand in BindingDB>
http://www.bindingdb.org/bind/chemsearch/marvin/MolStructure.jsp?monomerid=50358844

> <Link to Ligand-Target Pair in BindingDB>
http://www.bindingdb.org/jsp/dbsearch/PrimarySearch_ki.jsp?energyterm=kJ/mole&tag=pol&polymerid=2626&target=DNA+Gyrase+Subunit+B&column=ki&startPg=0&Increment=50&submit=Search

> <Link to Ligand-Target Pair in BindingDB>
http://www.bindingdb.org/jsp/dbsearch/PrimarySearch_ki.jsp?energyterm=kJ/mole&tag=r21&monomerid=50358844&enzyme=DNA+Gyrase+Subunit+B&column=ki&startPg=0&Increment=50&submit=Search

> <Ligand HET ID in PDB>


> <PDB ID(s) for Ligand-Target Complex>


> <PubChem CID>
57396007

> <PubChem SID>
136962868

> <ChEBI ID of Ligand>


> <ChEMBL ID of Ligand>
CHEMBL1923429

> <DrugBank ID of Ligand>


> <IUPHAR_GRAC ID of Ligand>


> <KEGG ID of Ligand>


> <ZINC ID of Ligand>
ZINC73196628

> <Number of Protein Chains in Target (>1 implies a multichain complex)>
1

> <BindingDB Target Chain Sequence>
MVTALSDVNNTDNYGAGQIQVLEGLEAVRKRPGMYIGSTSERGLHHLVWEIVDNSIDEALAGYANQIEVVIEKDNWIKVTDNGRGIPVDIQEKMGRPAVEVILTVLHAGGKFGGGGYKVSGGLHGVGSSVVNALSQDLEVYVHRNETIYHQAYKKGVPQFDLKEVGTTDKTGTVIRFKADGEIFTETTVYNYETLQQRIRELAFLNKGIQITLRDERDEENVREDSYHYEGGIKSYVELLNENKEPIHDEPIYIHQSKDDIEVEIAIQYNSGYATNLLTYANNIHTYEGGTHEDGFKRALTRVLNSYGLSSKIMKEEKDRLSGEDTREGMTAIISIKHGDPQFEGQTKTKLGNSEVRQVVDKLFSEHFERFLYENPQVARTVVEKGIMAARARVAAKKAREVTRRKSALDVASLPGKLADCSSKSPEECEIFLVEGDSAGGSTKSGRDSRTQAILPLRGKILNVEKARLDRILNNNEIRQMITAFGTGIGGDFDLAKARYHKIVIMTDADVDGAHIRTLLLTFFYRFMRPLIEAGYVYIAQPPLYKLTQGKQKYYVYNDRELDKLKSELNPTPKWSIARYKGLGEMNADQLWETTMNPEHRALLQVKLEDAIEADQTFEMLMGDVVENRRQFIEDNAVYANLDF

> <PDB ID(s) of Target Chain>


> <UniProt (SwissProt) Recommended Name of Target Chain>
DNA gyrase subunit B

> <UniProt (SwissProt) Entry Name of Target Chain>
GYRB_STAAU

> <UniProt (SwissProt) Primary ID of Target Chain>
P0A0K8

> <UniProt (SwissProt) Secondary ID(s) of Target Chain>
P20832

> <UniProt (SwissProt) Alternative ID(s) of Target Chain>


> <UniProt (TrEMBL) Submitted Name of Target Chain>


> <UniProt (TrEMBL) Entry Name of Target Chain>


> <UniProt (TrEMBL) Primary ID of Target Chain>


> <UniProt (TrEMBL) Secondary ID(s) of Target Chain>


> <UniProt (TrEMBL) Alternative ID(s) of Target Chain>


$$$$

  Mrv0541 11241420052D          

 24 26  0  0  0  0            999 V2000
    3.5819   -7.7707    0.0000 C   0  0  0  0  0  0  0  0  0  0  0  0
    3.5808   -8.5981    0.0000 C   0  0  0  0  0  0  0  0  0  0  0  0
    4.2955   -9.0109    0.0000 N   0  0  0  0  0  0  0  0  0  0  0  0
    4.2937   -7.3580    0.0000 C   0  0  0  0  0  0  0  0  0  0  0  0
    2.8673   -7.3584    0.0000 C   0  0  0  0  0  0  0  0  0  0  0  0
    2.8705   -6.5325    0.0000 C   0  0  0  0  0  0  0  0  0  0  0  0
    2.1568   -6.1202    0.0000 N   0  0  0  0  0  0  0  0  0  0  0  0
    1.4414   -6.5330    0.0000 C   0  0  0  0  0  0  0  0  0  0  0  0
    1.4444   -7.3622    0.0000 C   0  0  0  0  0  0  0  0  0  0  0  0
    2.1586   -7.7707    0.0000 C   0  0  0  0  0  0  0  0  0  0  0  0
    5.0091   -7.7670    0.0000 C   0  0  0  0  0  0  0  0  0  0  0  0
    5.0094   -8.5981    0.0000 C   0  0  0  0  0  0  0  0  0  0  0  0
    5.7998   -8.8547    0.0000 S   0  0  0  0  0  0  0  0  0  0  0  0
    6.2882   -8.1822    0.0000 C   0  0  0  0  0  0  0  0  0  0  0  0
    5.7993   -7.5101    0.0000 N   0  0  0  0  0  0  0  0  0  0  0  0
    7.1132   -8.1820    0.0000 N   0  0  0  0  0  0  0  0  0  0  0  0
    7.5254   -7.4673    0.0000 C   0  0  0  0  0  0  0  0  0  0  0  0
    8.3504   -7.4670    0.0000 O   0  0  0  0  0  0  0  0  0  0  0  0
    7.1127   -6.7529    0.0000 N   0  0  0  0  0  0  0  0  0  0  0  0
    7.5248   -6.0384    0.0000 C   0  0  0  0  0  0  0  0  0  0  0  0
    7.1121   -5.3240    0.0000 C   0  0  0  0  0  0  0  0  0  0  0  0
    2.8659   -9.0100    0.0000 O   0  0  0  0  0  0  0  0  0  0  0  0
    0.7264   -6.1216    0.0000 F   0  0  0  0  0  0  0  0  0  0  0  0
    4.2957   -9.8359    0.0000 C   0  0  0  0  0  0  0  0  0  0  0  0
  1  2  1  0  0  0  0
  2  3  1  0  0  0  0
  3 12  1  0  0  0  0
 11  4  1  0  0  0  0
  4  1  2  0  0  0  0
  1  5  1  0  0  0  0
  5  6  2  0  0  0  0
  6  7  1  0  0  0  0
  7  8  2  0  0  0  0
  8  9  1  0  0  0  0
  9 10  2  0  0  0  0
 10  5  1  0  0  0  0
 11 12  2  0  0  0  0
 12 13  1  0  0  0  0
 13 14  1  0  0  0  0
 14 15  2  0  0  0  0
 15 11  1  0  0  0  0
 14 16  1  0  0  0  0
 16 17  1  0  0  0  0
 17 18  2  0  0  0  0
 17 19  1  0  0  0  0
 19 20  1  0  0  0  0
 20 21  1  0  0  0  0
  2 22  2  0  0  0  0
  8 23  1  0  0  0  0
  3 24  1  0  0  0  0
M  END
> <From> 
www.bindingDB.org

> <BindingDB Reactant_set_id>
51091632

> <Ligand InChI>
InChI=1S/C15H14FN5O2S/c1-3-17-14(23)20-15-19-10-6-9(8-4-5-11(16)18-7-8)12(22)21(2)13(10)24-15/h4-7H,3H2,1-2H3,(H2,17,19,20,23)

> <Ligand InChI Key>
PIPBCUQMUDNZJX-UHFFFAOYSA-N

> <BindingDB MonomerID>
50447320

> <BindingDB Ligand Name>
CHEMBL3114214

> <Target Name Assigned by Curator or DataSource>
DNA gyrase subunit B

> <Target Source Organism According to Curator or DataSource>


> <Ki (nM)>


> <IC50 (nM)>
 150

> <Kd (nM)>


> <EC50 (nM)>


> <kon (M-1-s-1)>


> <koff (s-1)>


> <pH>


> <Temp C>


> <Curation/DataSource>
ChEMBL

> <Article DOI>
10.1016/j.bmcl.2013.12.080

> <PMID>
24405701

> <PubChem AID>


> <Patent Number>


> <Authors>
Kale, RR; Kale, MG; Waterson, D; Raichurkar, A; Hameed, SP; Manjunatha, MR; Kishore Reddy, BK; Malolanarasimhan, K; Shinde, V; Koushik, K; Jena, LK; Menasinakai, S; Humnabadkar, V; Madhavapeddi, P; Basavarajappa, H; Sharma, S; Nandishaiah, R; Mahesh Kumar, KN; Ganguly, S; Ahuja, V; Gaonkar, S; Naveen Kumar, CN; Ogg, D; Boriack-Sjodin, PA; Sambandamurthy, VK; de Sousa, SM; Ghorpade, SR

> <Institution>
AstraZeneca

> <Link to Ligand in BindingDB>
http://www.bindingdb.org/bind/chemsearch/marvin/MolStructure.jsp?monomerid=50447320

> <Link to Ligand-Target Pair in BindingDB>
http://www.bindingdb.org/jsp/dbsearch/PrimarySearch_ki.jsp?energyterm=kJ/mole&tag=pol&polymerid=50006452&target=DNA+gyrase+subunit+B&column=ki&startPg=0&Increment=50&submit=Search

> <Link to Ligand-Target Pair in BindingDB>
http://www.bindingdb.org/jsp/dbsearch/PrimarySearch_ki.jsp?energyterm=kJ/mole&tag=r21&monomerid=50447320&enzyme=DNA+gyrase+subunit+B&column=ki&startPg=0&Increment=50&submit=Search

> <Ligand HET ID in PDB>


> <PDB ID(s) for Ligand-Target Complex>


> <PubChem CID>
76310499

> <PubChem SID>
194945216

> <ChEBI ID of Ligand>


> <ChEMBL ID of Ligand>
CHEMBL3114214

> <DrugBank ID of Ligand>


> <IUPHAR_GRAC ID of Ligand>


> <KEGG ID of Ligand>


> <ZINC ID of Ligand>


> <Number of Protein Chains in Target (>1 implies a multichain complex)>
1

> <BindingDB Target Chain Sequence>
MAAQKNNAPKEYGADSITILEGLEAVRKRPGMYIGSTGERGLHHLIWEVVDNAVDEAMAGFATRVDVKIHADGSVEVRDDGRGIPVEMHATGMPTIDVVMTQLHAGGKFDGETYAVSGGLHGVGVSVVNALSTRLEATVLRDGYEWFQYYDRSVPGKLKQGGETKETGTTIRFWADPEIFETTDYNFETVARRLQEMAFLNKGLTIELTDERVTAEEVVDDVVKDTAEAPKTADEKAAEATGPSKVKHRVFHYPGGLVDYVKHINRTKTPIQQSIIDFDGKGPGHEVEIAMQWNAGYSESVHTFANTINTHEGGTHEEGFRAALTSVVNRYAKDKKLLKDKDPNLTGDDIREGLAAVISVKVAEPQFEGQTKTKLGNTEVKSFVQKICNEQLQHWFEANPAEAKTVVNKAVSSAQARIAARKARELVRRKSATDIGGLPGKLADCRSTDPSKSELYVVEGDSAGGSAKSGRDSMFQAILPLRGKIINVEKARIDRVLKNTEVQSIITALGTGIHDEFDISKLRYHKIVLMADADVDGQHISTLLLTLLFRFMKPLVENGHIFLAQPPLYKLKWQRSEPEFAYSDRERDGLLEAGRAAGKKINVDDGIQRYKGLGEMDAKELWETTMDPSVRVLRQVTLDDAAAADELFSILMGEDVEARRSFITRNAKDVRFLDV

> <PDB ID(s) of Target Chain>
4BAE

> <UniProt (SwissProt) Recommended Name of Target Chain>
DNA gyrase subunit B

> <UniProt (SwissProt) Entry Name of Target Chain>
GYRB_MYCSM

> <UniProt (SwissProt) Primary ID of Target Chain>
P0C559

> <UniProt (SwissProt) Secondary ID(s) of Target Chain>
P48355,Q59555

> <UniProt (SwissProt) Alternative ID(s) of Target Chain>


> <UniProt (TrEMBL) Submitted Name of Target Chain>


> <UniProt (TrEMBL) Entry Name of Target Chain>


> <UniProt (TrEMBL) Primary ID of Target Chain>


> <UniProt (TrEMBL) Secondary ID(s) of Target Chain>


> <UniProt (TrEMBL) Alternative ID(s) of Target Chain>


$$$$

  Mrv0541 11231413392D          

 45 49  0  0  0  0            999 V2000
   10.4167  -20.7022    0.0000 C   0  0  0  0  0  0  0  0  0  0  0  0
    9.6909  -20.3006    0.0000 C   0  0  1  0  0  0  0  0  0  0  0  0
    8.9840  -20.7262    0.0000 C   0  0  2  0  0  0  0  0  0  0  0  0
    8.9970  -21.5551    0.0000 C   0  0  2  0  0  0  0  0  0  0  0  0
    9.7229  -21.9566    0.0000 C   0  0  1  0  0  0  0  0  0  0  0  0
   10.4359  -21.5293    0.0000 O   0  0  0  0  0  0  0  0  0  0  0  0
    9.7372  -22.7814    0.0000 O   0  0  0  0  0  0  0  0  0  0  0  0
   10.4569  -23.1927    0.0000 C   0  0  0  0  0  0  0  0  0  0  0  0
   10.4562  -24.0173    0.0000 C   0  0  0  0  0  0  0  0  0  0  0  0
   11.1718  -22.7785    0.0000 C   0  0  0  0  0  0  0  0  0  0  0  0
   11.8862  -23.1962    0.0000 C   0  0  0  0  0  0  0  0  0  0  0  0
   11.8844  -24.0209    0.0000 C   0  0  0  0  0  0  0  0  0  0  0  0
   11.1691  -24.4324    0.0000 C   0  0  0  0  0  0  0  0  0  0  0  0
   11.1679  -25.2531    0.0000 O   0  0  0  0  0  0  0  0  0  0  0  0
   11.8803  -25.6685    0.0000 C   0  0  0  0  0  0  0  0  0  0  0  0
   12.5956  -25.2570    0.0000 C   0  0  0  0  0  0  0  0  0  0  0  0
   12.5984  -24.4300    0.0000 C   0  0  0  0  0  0  0  0  0  0  0  0
   13.3130  -24.0176    0.0000 O   0  0  0  0  0  0  0  0  0  0  0  0
   11.8780  -26.4934    0.0000 O   0  0  0  0  0  0  0  0  0  0  0  0
   13.3089  -25.6712    0.0000 N   0  0  0  0  0  0  0  0  0  0  0  0
   13.3069  -26.4962    0.0000 C   0  0  0  0  0  0  0  0  0  0  0  0
   12.5914  -26.9068    0.0000 O   0  0  0  0  0  0  0  0  0  0  0  0
   14.0203  -26.9104    0.0000 C   0  0  0  0  0  0  0  0  0  0  0  0
   14.0153  -27.7346    0.0000 C   0  0  0  0  0  0  0  0  0  0  0  0
   14.7280  -28.1488    0.0000 C   0  0  0  0  0  0  0  0  0  0  0  0
   15.4444  -27.7381    0.0000 C   0  0  0  0  0  0  0  0  0  0  0  0
   15.4439  -26.9088    0.0000 C   0  0  0  0  0  0  0  0  0  0  0  0
   14.7307  -26.4983    0.0000 C   0  0  0  0  0  0  0  0  0  0  0  0
   11.2443  -20.6833    0.0000 C   0  0  0  0  0  0  0  0  0  0  0  0
   10.4058  -19.8791    0.0000 C   0  0  0  0  0  0  0  0  0  0  0  0
    9.6757  -19.4759    0.0000 O   0  0  0  0  0  0  0  0  0  0  0  0
   10.3825  -19.0503    0.0000 C   0  0  0  0  0  0  0  0  0  0  0  0
    8.2627  -20.3258    0.0000 O   0  0  0  0  0  0  0  0  0  0  0  0
    8.2487  -19.5010    0.0000 C   0  0  0  0  0  0  0  0  0  0  0  0
    7.5277  -19.1003    0.0000 C   0  0  0  0  0  0  0  0  0  0  0  0
    8.9561  -19.0765    0.0000 O   0  0  0  0  0  0  0  0  0  0  0  0
    8.2896  -21.9797    0.0000 O   0  0  0  0  0  0  0  0  0  0  0  0
    7.2919  -18.3068    0.0000 C   0  0  0  0  0  0  0  0  0  0  0  0
    6.4672  -18.2837    0.0000 C   0  0  0  0  0  0  0  0  0  0  0  0
    6.1904  -19.0610    0.0000 C   0  0  0  0  0  0  0  0  0  0  0  0
    6.8441  -19.5642    0.0000 N   0  0  0  0  0  0  0  0  0  0  0  0
    5.4724  -19.4651    0.0000 C   0  0  0  0  0  0  0  0  0  0  0  0
    9.7408  -24.4281    0.0000 C   0  0  0  0  0  0  0  0  0  0  0  0
   16.1579  -26.4955    0.0000 C   0  0  0  0  0  0  0  0  0  0  0  0
   16.1584  -28.1513    0.0000 N   0  0  0  0  0  0  0  0  0  0  0  0
  9 13  2  0  0  0  0
 21 22  2  0  0  0  0
 11 10  1  0  0  0  0
 21 23  1  0  0  0  0
 11 12  2  0  0  0  0
 23 24  2  0  0  0  0
  3  4  1  0  0  0  0
 24 25  1  0  0  0  0
 12 13  1  0  0  0  0
 25 26  2  0  0  0  0
  4  5  1  0  0  0  0
 26 27  1  0  0  0  0
  5  6  1  0  0  0  0
 27 28  2  0  0  0  0
 28 23  1  0  0  0  0
  1 29  1  0  0  0  0
  5  7  1  1  0  0  0
  1 30  1  0  0  0  0
  2  1  1  0  0  0  0
  2 31  1  1  0  0  0
  7  8  1  0  0  0  0
 31 32  1  0  0  0  0
 12 17  1  0  0  0  0
  3 33  1  6  0  0  0
 13 14  1  0  0  0  0
 33 34  1  0  0  0  0
 14 15  1  0  0  0  0
 34 35  1  0  0  0  0
 15 16  1  0  0  0  0
 34 36  2  0  0  0  0
 16 17  2  0  0  0  0
  4 37  1  6  0  0  0
 35 38  2  0  0  0  0
  8  9  1  0  0  0  0
 17 18  1  0  0  0  0
  1  6  1  0  0  0  0
 15 19  2  0  0  0  0
 38 39  1  0  0  0  0
 39 40  2  0  0  0  0
 40 41  1  0  0  0  0
 41 35  1  0  0  0  0
  3  2  1  0  0  0  0
 40 42  1  0  0  0  0
 16 20  1  0  0  0  0
  9 43  1  0  0  0  0
  8 10  2  0  0  0  0
 27 44  1  0  0  0  0
 20 21  1  0  0  0  0
 26 45  1  0  0  0  0
M  END
> <From> 
www.bindingDB.org

> <BindingDB Reactant_set_id>
50607677

> <Ligand InChI>
InChI=1S/C32H35N3O10/c1-14-13-17(8-10-19(14)33)28(38)35-22-23(36)18-9-12-21(16(3)25(18)43-30(22)40)42-31-24(37)26(27(41-6)32(4,5)45-31)44-29(39)20-11-7-15(2)34-20/h7-13,24,26-27,31,34,36-37H,33H2,1-6H3,(H,35,38)/t24-,26+,27-,31-/m1/s1

> <Ligand InChI Key>
AVLLVHYTYQSKBF-PPOHMGSZSA-N

> <BindingDB MonomerID>
50330306

> <BindingDB Ligand Name>
(3R,4S,5R,6R)-6-(3-(4-amino-3-methylbenzamido)-4-hydroxy-8-methyl-2-oxo-2H-chromen-7-yloxy)-5-hydroxy-3-methoxy-2,2-dimethyltetrahydro-2H-pyran-4-yl 5-methyl-1H-pyrrole-2-carboxylate::CHEMBL1275887

> <Target Name Assigned by Curator or DataSource>
DNA Gyrase Subunit B

> <Target Source Organism According to Curator or DataSource>
Escherichia coli

> <Ki (nM)>


> <IC50 (nM)>
 152

> <Kd (nM)>


> <EC50 (nM)>


> <kon (M-1-s-1)>


> <koff (s-1)>


> <pH>


> <Temp C>


> <Curation/DataSource>
ChEMBL

> <Article DOI>
10.1128/AAC.01235-07

> <PMID>
18347114

> <PubChem AID>


> <Patent Number>


> <Authors>
Anderle, C; Stieger, M; Burrell, M; Reinelt, S; Maxwell, A; Page, M; Heide, L

> <Institution>
Universit&#228;t T&#252;bingen

> <Link to Ligand in BindingDB>
http://www.bindingdb.org/bind/chemsearch/marvin/MolStructure.jsp?monomerid=50330306

> <Link to Ligand-Target Pair in BindingDB>
http://www.bindingdb.org/jsp/dbsearch/PrimarySearch_ki.jsp?energyterm=kJ/mole&tag=pol&polymerid=2630&target=DNA+Gyrase+Subunit+B&column=ki&startPg=0&Increment=50&submit=Search

> <Link to Ligand-Target Pair in BindingDB>
http://www.bindingdb.org/jsp/dbsearch/PrimarySearch_ki.jsp?energyterm=kJ/mole&tag=r21&monomerid=50330306&enzyme=DNA+Gyrase+Subunit+B&column=ki&startPg=0&Increment=50&submit=Search

> <Ligand HET ID in PDB>


> <PDB ID(s) for Ligand-Target Complex>


> <PubChem CID>
54732402

> <PubChem SID>
123109421

> <ChEBI ID of Ligand>


> <ChEMBL ID of Ligand>
CHEMBL1275887

> <DrugBank ID of Ligand>


> <IUPHAR_GRAC ID of Ligand>


> <KEGG ID of Ligand>


> <ZINC ID of Ligand>
ZINC64447243

> <Number of Protein Chains in Target (>1 implies a multichain complex)>
1

> <BindingDB Target Chain Sequence>
MSNSYDSSSIKVLKGLDAVRKRPGMYIGDTDDGTGLHHMVFEVVDNAIDEALAGHCKEII
VTIHADNSVSVQDDGRGIPTGIHPEEGVSAAEVIMTVLHAGGKFDDNSYKVSGGLHGVGV
SVVNALSQKLELVIQREGKIHRQIYEHGVPQAPLAVTGETEKTGTMVRFWPSLETFTNVT
EFEYEILAKRLRELSFLNSGVSIRLRDKRDGKEDHFHYEGGIKAFVEYLNKNKTPIHPNI
FYFSTEKDGIGVEVALQWNDGFQENIYCFTNNIPQRDGGTHLAGFRAAMTRTLNAYMDKE
GYSKKAKVSATGDDAREGLIAVVSVKVPDPKFSSQTKDKLVSSEVKSAVEQQMNELLAEY
LLENPTDAKIVVGKIIDAARAREAARRAREMTRRKGALDLAGLPGKLADCQERDPALSEL
YLVEGDSAGGSAKQGRNRKNQAILPLKGKILNVEKARFDKMLSSQEVATLITALGCGIGR
DEYNPDKLRYHSIIIMTDADVDGSHIRTLLLTFFYRQMPEIVERGHVYIAQPPLYKVKKG
KQEQYIKDDEAMDQYQISIALDGATLHTNASAPALAGEALEKLVSEYNATQKMINRMERR
YPKAMLKELIYQPTLTEADLSDEQTVTRWVNALVSELNDKEQHGSQWKFDVHTNAEQNLF
EPIVRVRTHGVDTDYPLDHEFITGGEYRRICTLGEKLRGLLEEDAFIERGERRQPVASFE
QALDWLVKESRRGLSIQRYKGLGEMNPEQLWETTMDPESRRMLRVTVKDAIAADQLFTTL
MGDAVEPRRAFIEENALKAANIDI

> <PDB ID(s) of Target Chain>
1KZN,3G7E,3NUH,4DUH,4HYP,4KFG,4PRV,4PRX,4PU9,4WUB,4WUC,4WUD,4XTJ,4ZVI,5L3J,5MMN,5MMO,5MMP,5Z4H,5Z4O,5Z9B,5Z9E,5Z9F,5Z9L,5Z9M,5Z9N,5Z9Q,6ENG,6F86,6F8J,6F94,6F96

> <UniProt (SwissProt) Recommended Name of Target Chain>
DNA gyrase subunit B

> <UniProt (SwissProt) Entry Name of Target Chain>
GYRB_ECOLI

> <UniProt (SwissProt) Primary ID of Target Chain>
P0AES6

> <UniProt (SwissProt) Secondary ID(s) of Target Chain>
O08438,P06982,Q2M811

> <UniProt (SwissProt) Alternative ID(s) of Target Chain>


> <UniProt (TrEMBL) Submitted Name of Target Chain>


> <UniProt (TrEMBL) Entry Name of Target Chain>


> <UniProt (TrEMBL) Primary ID of Target Chain>


> <UniProt (TrEMBL) Secondary ID(s) of Target Chain>


> <UniProt (TrEMBL) Alternative ID(s) of Target Chain>


$$$$

  Mrv0541 11241415502D          

 44 47  0  0  1  0            999 V2000
   10.7542   -7.9589    0.0000 C   0  0  0  0  0  0  0  0  0  0  0  0
   10.0397   -7.5464    0.0000 O   0  0  0  0  0  0  0  0  0  0  0  0
   10.0397   -6.7214    0.0000 C   0  0  2  0  0  0  0  0  0  0  0  0
    9.3253   -6.3089    0.0000 C   0  0  1  0  0  0  0  0  0  0  0  0
    8.6108   -6.7214    0.0000 O   0  0  0  0  0  0  0  0  0  0  0  0
    8.6108   -7.5464    0.0000 C   0  0  0  0  0  0  0  0  0  0  0  0
    9.3253   -7.9589    0.0000 O   0  0  0  0  0  0  0  0  0  0  0  0
    7.8963   -7.9589    0.0000 N   0  0  0  0  0  0  0  0  0  0  0  0
    9.3253   -5.4839    0.0000 C   0  0  2  0  0  0  0  0  0  0  0  0
    8.6108   -5.0714    0.0000 O   0  0  0  0  0  0  0  0  0  0  0  0
   10.0397   -5.0714    0.0000 C   0  0  1  0  0  0  0  0  0  0  0  0
   10.0397   -4.2464    0.0000 O   0  0  0  0  0  0  0  0  0  0  0  0
   10.7542   -3.8339    0.0000 C   0  0  0  0  0  0  0  0  0  0  0  0
   10.7542   -3.0089    0.0000 C   0  0  0  0  0  0  0  0  0  0  0  0
   11.4687   -2.5964    0.0000 C   0  0  0  0  0  0  0  0  0  0  0  0
   12.1831   -3.0089    0.0000 C   0  0  0  0  0  0  0  0  0  0  0  0
   12.8976   -2.5964    0.0000 C   0  0  0  0  0  0  0  0  0  0  0  0
   13.6121   -3.0089    0.0000 C   0  0  0  0  0  0  0  0  0  0  0  0
   14.3266   -2.5964    0.0000 N   0  0  0  0  0  0  0  0  0  0  0  0
   15.0410   -3.0089    0.0000 C   0  0  0  0  0  0  0  0  0  0  0  0
   15.0410   -3.8339    0.0000 O   0  0  0  0  0  0  0  0  0  0  0  0
   15.7555   -2.5964    0.0000 C   0  0  0  0  0  0  0  0  0  0  0  0
   15.7555   -1.7714    0.0000 C   0  0  0  0  0  0  0  0  0  0  0  0
   16.4700   -1.3589    0.0000 C   0  0  0  0  0  0  0  0  0  0  0  0
   17.1844   -1.7714    0.0000 C   0  0  0  0  0  0  0  0  0  0  0  0
   17.8989   -1.3589    0.0000 O   0  0  0  0  0  0  0  0  0  0  0  0
   17.1844   -2.5964    0.0000 C   0  0  0  0  0  0  0  0  0  0  0  0
   17.8989   -3.0089    0.0000 C   0  0  0  0  0  0  0  0  0  0  0  0
   18.6134   -2.5964    0.0000 C   0  0  0  0  0  0  0  0  0  0  0  0
   19.3279   -3.0089    0.0000 C   0  0  0  0  0  0  0  0  0  0  0  0
   20.0423   -2.5964    0.0000 C   0  0  0  0  0  0  0  0  0  0  0  0
   19.3279   -3.8339    0.0000 C   0  0  0  0  0  0  0  0  0  0  0  0
   16.4700   -3.0089    0.0000 C   0  0  0  0  0  0  0  0  0  0  0  0
   13.6121   -3.8339    0.0000 C   0  0  0  0  0  0  0  0  0  0  0  0
   14.3266   -4.2464    0.0000 O   0  0  0  0  0  0  0  0  0  0  0  0
   12.8976   -4.2464    0.0000 O   0  0  0  0  0  0  0  0  0  0  0  0
   12.1831   -3.8339    0.0000 C   0  0  0  0  0  0  0  0  0  0  0  0
   11.4687   -4.2464    0.0000 C   0  0  0  0  0  0  0  0  0  0  0  0
   11.4687   -5.0714    0.0000 C   0  0  0  0  0  0  0  0  0  0  0  0
   12.8976   -1.7714    0.0000 O   0  0  0  0  0  0  0  0  0  0  0  0
   10.7542   -5.4839    0.0000 O   0  0  0  0  0  0  0  0  0  0  0  0
   10.7542   -6.3089    0.0000 C   0  0  0  0  0  0  0  0  0  0  0  0
   11.5787   -6.3377    0.0000 C   0  0  0  0  0  0  0  0  0  0  0  0
   11.1914   -7.0085    0.0000 C   0  0  0  0  0  0  0  0  0  0  0  0
  1  2  1  0  0  0  0
  3  2  1  6  0  0  0
  4  3  1  0  0  0  0
  4  5  1  1  0  0  0
  5  6  1  0  0  0  0
  6  7  2  0  0  0  0
  6  8  1  0  0  0  0
  4  9  1  0  0  0  0
  9 10  1  6  0  0  0
  9 11  1  0  0  0  0
 11 12  1  1  0  0  0
 12 13  1  0  0  0  0
 13 14  2  0  0  0  0
 14 15  1  0  0  0  0
 15 16  2  0  0  0  0
 16 17  1  0  0  0  0
 17 18  2  0  0  0  0
 18 19  1  0  0  0  0
 19 20  1  0  0  0  0
 20 21  2  0  0  0  0
 20 22  1  0  0  0  0
 22 23  2  0  0  0  0
 23 24  1  0  0  0  0
 24 25  2  0  0  0  0
 25 26  1  0  0  0  0
 25 27  1  0  0  0  0
 27 28  1  0  0  0  0
 28 29  1  0  0  0  0
 29 30  2  0  0  0  0
 30 31  1  0  0  0  0
 30 32  1  0  0  0  0
 27 33  2  0  0  0  0
 22 33  1  0  0  0  0
 18 34  1  0  0  0  0
 34 35  2  0  0  0  0
 34 36  1  0  0  0  0
 36 37  1  0  0  0  0
 16 37  1  0  0  0  0
 37 38  2  0  0  0  0
 13 38  1  0  0  0  0
 38 39  1  0  0  0  0
 17 40  1  0  0  0  0
 11 41  1  0  0  0  0
 41 42  1  0  0  0  0
  3 42  1  0  0  0  0
 42 43  1  0  0  0  0
 42 44  1  0  0  0  0
M  END
> <From> 
www.bindingDB.org

> <BindingDB Reactant_set_id>
51037576

> <Ligand InChI>
InChI=1S/C31H36N2O11/c1-14(2)7-8-16-13-17(9-11-19(16)34)27(37)33-21-22(35)18-10-12-20(15(3)24(18)42-28(21)38)41-29-23(36)25(43-30(32)39)26(40-6)31(4,5)44-29/h7,9-13,23,25-26,29,34-36H,8H2,1-6H3,(H2,32,39)(H,33,37)/t23-,25-,26+,29-/m0/s1

> <Ligand InChI Key>
YJQPYGGHQPGBLI-FWPHEPGVSA-N

> <BindingDB MonomerID>
50423645

> <BindingDB Ligand Name>
Albamycin::Cathomycin::NOVOBIOCIN

> <Target Name Assigned by Curator or DataSource>
DNA Gyrase Subunit B

> <Target Source Organism According to Curator or DataSource>
Escherichia coli

> <Ki (nM)>


> <IC50 (nM)>
 154

> <Kd (nM)>


> <EC50 (nM)>


> <kon (M-1-s-1)>


> <koff (s-1)>


> <pH>


> <Temp C>


> <Curation/DataSource>
ChEMBL

> <Article DOI>
10.1128/AAC.01235-07

> <PMID>
18347114

> <PubChem AID>


> <Patent Number>


> <Authors>
Anderle, C; Stieger, M; Burrell, M; Reinelt, S; Maxwell, A; Page, M; Heide, L

> <Institution>
Universit&#228;t T&#252;bingen

> <Link to Ligand in BindingDB>
http://www.bindingdb.org/bind/chemsearch/marvin/MolStructure.jsp?monomerid=50423645

> <Link to Ligand-Target Pair in BindingDB>
http://www.bindingdb.org/jsp/dbsearch/PrimarySearch_ki.jsp?energyterm=kJ/mole&tag=pol&polymerid=2630&target=DNA+Gyrase+Subunit+B&column=ki&startPg=0&Increment=50&submit=Search

> <Link to Ligand-Target Pair in BindingDB>
http://www.bindingdb.org/jsp/dbsearch/PrimarySearch_ki.jsp?energyterm=kJ/mole&tag=r21&monomerid=50423645&enzyme=DNA+Gyrase+Subunit+B&column=ki&startPg=0&Increment=50&submit=Search

> <Ligand HET ID in PDB>


> <PDB ID(s) for Ligand-Target Complex>


> <PubChem CID>
71719647

> <PubChem SID>
164152520

> <ChEBI ID of Ligand>


> <ChEMBL ID of Ligand>


> <DrugBank ID of Ligand>


> <IUPHAR_GRAC ID of Ligand>


> <KEGG ID of Ligand>


> <ZINC ID of Ligand>
ZINC76945632

> <Number of Protein Chains in Target (>1 implies a multichain complex)>
1

> <BindingDB Target Chain Sequence>
MSNSYDSSSIKVLKGLDAVRKRPGMYIGDTDDGTGLHHMVFEVVDNAIDEALAGHCKEII
VTIHADNSVSVQDDGRGIPTGIHPEEGVSAAEVIMTVLHAGGKFDDNSYKVSGGLHGVGV
SVVNALSQKLELVIQREGKIHRQIYEHGVPQAPLAVTGETEKTGTMVRFWPSLETFTNVT
EFEYEILAKRLRELSFLNSGVSIRLRDKRDGKEDHFHYEGGIKAFVEYLNKNKTPIHPNI
FYFSTEKDGIGVEVALQWNDGFQENIYCFTNNIPQRDGGTHLAGFRAAMTRTLNAYMDKE
GYSKKAKVSATGDDAREGLIAVVSVKVPDPKFSSQTKDKLVSSEVKSAVEQQMNELLAEY
LLENPTDAKIVVGKIIDAARAREAARRAREMTRRKGALDLAGLPGKLADCQERDPALSEL
YLVEGDSAGGSAKQGRNRKNQAILPLKGKILNVEKARFDKMLSSQEVATLITALGCGIGR
DEYNPDKLRYHSIIIMTDADVDGSHIRTLLLTFFYRQMPEIVERGHVYIAQPPLYKVKKG
KQEQYIKDDEAMDQYQISIALDGATLHTNASAPALAGEALEKLVSEYNATQKMINRMERR
YPKAMLKELIYQPTLTEADLSDEQTVTRWVNALVSELNDKEQHGSQWKFDVHTNAEQNLF
EPIVRVRTHGVDTDYPLDHEFITGGEYRRICTLGEKLRGLLEEDAFIERGERRQPVASFE
QALDWLVKESRRGLSIQRYKGLGEMNPEQLWETTMDPESRRMLRVTVKDAIAADQLFTTL
MGDAVEPRRAFIEENALKAANIDI

> <PDB ID(s) of Target Chain>
1KZN,3G7E,3NUH,4DUH,4HYP,4KFG,4PRV,4PRX,4PU9,4WUB,4WUC,4WUD,4XTJ,4ZVI,5L3J,5MMN,5MMO,5MMP,5Z4H,5Z4O,5Z9B,5Z9E,5Z9F,5Z9L,5Z9M,5Z9N,5Z9Q,6ENG,6F86,6F8J,6F94,6F96

> <UniProt (SwissProt) Recommended Name of Target Chain>
DNA gyrase subunit B

> <UniProt (SwissProt) Entry Name of Target Chain>
GYRB_ECOLI

> <UniProt (SwissProt) Primary ID of Target Chain>
P0AES6

> <UniProt (SwissProt) Secondary ID(s) of Target Chain>
O08438,P06982,Q2M811

> <UniProt (SwissProt) Alternative ID(s) of Target Chain>


> <UniProt (TrEMBL) Submitted Name of Target Chain>


> <UniProt (TrEMBL) Entry Name of Target Chain>


> <UniProt (TrEMBL) Primary ID of Target Chain>


> <UniProt (TrEMBL) Secondary ID(s) of Target Chain>


> <UniProt (TrEMBL) Alternative ID(s) of Target Chain>


$$$$

  SciTegic09291413392D

 22 24  0  0  0  0            999 V2000
    0.5805   -2.8147    0.0000 C   0  0
    0.5794   -3.6343    0.0000 C   0  0
    1.2874   -4.0432    0.0000 C   0  0
    1.2856   -2.4059    0.0000 C   0  0
    1.9943   -2.8111    0.0000 C   0  0
    1.9991   -3.6343    0.0000 C   0  0
    2.7835   -3.8841    0.0000 S   0  0
    3.2635   -3.2153    0.0000 C   0  0
    2.7756   -2.5522    0.0000 N   0  0
   -0.1307   -2.4065    0.0000 C   0  0
   -0.1318   -1.5882    0.0000 C   0  0
   -0.8364   -1.1798    0.0000 C   0  0
   -1.5475   -1.5887    0.0000 C   0  0
   -1.5421   -2.4101    0.0000 N   0  0
   -0.8299   -2.8147    0.0000 C   0  0
    4.0806   -3.2105    0.0000 N   0  0
    4.4850   -2.5003    0.0000 C   0  0
    5.3022   -2.4955    0.0000 N   0  0
    4.0723   -1.7951    0.0000 O   0  0
    5.7066   -1.7854    0.0000 C   0  0
    6.5238   -1.7806    0.0000 C   0  0
    6.9282   -1.0705    0.0000 C   0  0
  1  2  2  0
  2  3  1  0
  3  6  2  0
  5  4  2  0
  4  1  1  0
  5  6  1  0
  6  7  1  0
  7  8  1  0
  8  9  2  0
  9  5  1  0
 10 11  2  0
 11 12  1  0
 12 13  2  0
 13 14  1  0
 14 15  2  0
 15 10  1  0
  1 10  1  0
  8 16  1  0
 16 17  1  0
 17 18  1  0
 17 19  2  0
 18 20  1  0
 20 21  1  0
 21 22  2  0
M  END
> <From> 
www.bindingDB.org

> <BindingDB Reactant_set_id>
50089889

> <Ligand InChI>
InChI=1S/C16H14N4OS/c1-2-7-18-15(21)20-16-19-13-9-11(5-6-14(13)22-16)12-4-3-8-17-10-12/h2-6,8-10H,1,7H2,(H2,18,19,20,21)

> <Ligand InChI Key>
YJBJIZCSDYHEGH-UHFFFAOYSA-N

> <BindingDB MonomerID>
50010341

> <BindingDB Ligand Name>
CHEMBL3263585

> <Target Name Assigned by Curator or DataSource>
DNA gyrase subunit B

> <Target Source Organism According to Curator or DataSource>


> <Ki (nM)>


> <IC50 (nM)>
 160

> <Kd (nM)>


> <EC50 (nM)>


> <kon (M-1-s-1)>


> <koff (s-1)>


> <pH>


> <Temp C>


> <Curation/DataSource>
ChEMBL

> <Article DOI>
10.1021/jm401268f

> <PMID>
24088190

> <PubChem AID>


> <Patent Number>


> <Authors>
Ahuja, V; Ahuja, V; Basavarajappa, H; Basavarajappa, H; P, SH; P, SH; Boriack-Sjodin, PA; Boriack-Sjodin, PA; McKinney, D; McKinney, D; Ganguly, S; Ganguly, S; Kranthi, U; Kranthi, U; Gaonkar, S; Gaonkar, S; Jena, Lk; Jena, Lk; Ghorpade, SR; Ghorpade, SR; Ghosh, A; Ghosh, A; Barde, S; Barde, S; Kale, MG; Kale, MG; Koushik, K; Koushik, K; Kumar, CN; Kumar, CN; Manjunatha, MR; Manjunatha, MR; Ogg, D; Ogg, D; Panduga, V; Panduga, V; Ramya, VK; Ramya, VK; Reddy, J; Reddy, J; Kumar, KN; Kumar, KN; Giridhar, J; Giridhar, J; Rudrapatna, S; Rudrapatna, S; Sharma, S; Sharma, S; Tucker, JA; Tucker, JA; Vachaspati, P; Vachaspati, P; Waterson, D; Waterson, D; de Sousa, SM; de Sousa, SM

> <Institution>
AstraZeneca India Pvt. Ltd.

> <Link to Ligand in BindingDB>
http://www.bindingdb.org/bind/chemsearch/marvin/MolStructure.jsp?monomerid=50010341

> <Link to Ligand-Target Pair in BindingDB>
http://www.bindingdb.org/jsp/dbsearch/PrimarySearch_ki.jsp?energyterm=kJ/mole&tag=pol&polymerid=50006452&target=DNA+gyrase+subunit+B&column=ki&startPg=0&Increment=50&submit=Search

> <Link to Ligand-Target Pair in BindingDB>
http://www.bindingdb.org/jsp/dbsearch/PrimarySearch_ki.jsp?energyterm=kJ/mole&tag=r21&monomerid=50010341&enzyme=DNA+gyrase+subunit+B&column=ki&startPg=0&Increment=50&submit=Search

> <Ligand HET ID in PDB>


> <PDB ID(s) for Ligand-Target Complex>


> <PubChem CID>
90655764

> <PubChem SID>
103923155

> <ChEBI ID of Ligand>


> <ChEMBL ID of Ligand>
CHEMBL3263585

> <DrugBank ID of Ligand>


> <IUPHAR_GRAC ID of Ligand>


> <KEGG ID of Ligand>


> <ZINC ID of Ligand>
ZINC13446841

> <Number of Protein Chains in Target (>1 implies a multichain complex)>
1

> <BindingDB Target Chain Sequence>
MAAQKNNAPKEYGADSITILEGLEAVRKRPGMYIGSTGERGLHHLIWEVVDNAVDEAMAGFATRVDVKIHADGSVEVRDDGRGIPVEMHATGMPTIDVVMTQLHAGGKFDGETYAVSGGLHGVGVSVVNALSTRLEATVLRDGYEWFQYYDRSVPGKLKQGGETKETGTTIRFWADPEIFETTDYNFETVARRLQEMAFLNKGLTIELTDERVTAEEVVDDVVKDTAEAPKTADEKAAEATGPSKVKHRVFHYPGGLVDYVKHINRTKTPIQQSIIDFDGKGPGHEVEIAMQWNAGYSESVHTFANTINTHEGGTHEEGFRAALTSVVNRYAKDKKLLKDKDPNLTGDDIREGLAAVISVKVAEPQFEGQTKTKLGNTEVKSFVQKICNEQLQHWFEANPAEAKTVVNKAVSSAQARIAARKARELVRRKSATDIGGLPGKLADCRSTDPSKSELYVVEGDSAGGSAKSGRDSMFQAILPLRGKIINVEKARIDRVLKNTEVQSIITALGTGIHDEFDISKLRYHKIVLMADADVDGQHISTLLLTLLFRFMKPLVENGHIFLAQPPLYKLKWQRSEPEFAYSDRERDGLLEAGRAAGKKINVDDGIQRYKGLGEMDAKELWETTMDPSVRVLRQVTLDDAAAADELFSILMGEDVEARRSFITRNAKDVRFLDV

> <PDB ID(s) of Target Chain>
4BAE

> <UniProt (SwissProt) Recommended Name of Target Chain>
DNA gyrase subunit B

> <UniProt (SwissProt) Entry Name of Target Chain>
GYRB_MYCSM

> <UniProt (SwissProt) Primary ID of Target Chain>
P0C559

> <UniProt (SwissProt) Secondary ID(s) of Target Chain>
P48355,Q59555

> <UniProt (SwissProt) Alternative ID(s) of Target Chain>


> <UniProt (TrEMBL) Submitted Name of Target Chain>


> <UniProt (TrEMBL) Entry Name of Target Chain>


> <UniProt (TrEMBL) Primary ID of Target Chain>


> <UniProt (TrEMBL) Secondary ID(s) of Target Chain>


> <UniProt (TrEMBL) Alternative ID(s) of Target Chain>


$$$$

  Mrv0541 11241408262D          

 31 34  0  0  0  0            999 V2000
   -2.4389   -6.1375    0.0000 C   0  0  0  0  0  0  0  0  0  0  0  0
   -2.4401   -6.9648    0.0000 C   0  0  0  0  0  0  0  0  0  0  0  0
   -1.7253   -7.3777    0.0000 C   0  0  0  0  0  0  0  0  0  0  0  0
   -1.7271   -5.7247    0.0000 C   0  0  0  0  0  0  0  0  0  0  0  0
   -0.2204   -5.8798    0.0000 N   0  0  0  0  0  0  0  0  0  0  0  0
   -1.0117   -6.1338    0.0000 C   0  0  0  0  0  0  0  0  0  0  0  0
   -1.0135   -6.9656    0.0000 N   0  0  0  0  0  0  0  0  0  0  0  0
   -0.2224   -7.2230    0.0000 C   0  0  0  0  0  0  0  0  0  0  0  0
    0.2657   -6.5494    0.0000 C   0  0  0  0  0  0  0  0  0  0  0  0
   -3.1514   -5.7253    0.0000 C   0  0  0  0  0  0  0  0  0  0  0  0
   -3.1503   -4.8992    0.0000 C   0  0  0  0  0  0  0  0  0  0  0  0
   -3.8640   -4.4869    0.0000 N   0  0  0  0  0  0  0  0  0  0  0  0
   -4.5793   -4.8997    0.0000 C   0  0  0  0  0  0  0  0  0  0  0  0
   -4.5765   -5.7289    0.0000 C   0  0  0  0  0  0  0  0  0  0  0  0
   -3.8622   -6.1374    0.0000 C   0  0  0  0  0  0  0  0  0  0  0  0
   -1.7233   -8.1999    0.0000 C   0  0  0  0  0  0  0  0  0  0  0  0
   -2.4391   -8.6122    0.0000 N   0  0  0  0  0  0  0  0  0  0  0  0
   -2.4390   -9.4365    0.0000 C   0  0  0  0  0  0  0  0  0  0  0  0
   -1.7238   -9.8494    0.0000 C   0  0  0  0  0  0  0  0  0  0  0  0
   -1.0072   -9.4321    0.0000 C   0  0  0  0  0  0  0  0  0  0  0  0
   -1.0108   -8.6092    0.0000 N   0  0  0  0  0  0  0  0  0  0  0  0
    1.0907   -6.5491    0.0000 N   0  0  0  0  0  0  0  0  0  0  0  0
    1.5029   -5.8345    0.0000 C   0  0  0  0  0  0  0  0  0  0  0  0
    2.3279   -5.8341    0.0000 N   0  0  0  0  0  0  0  0  0  0  0  0
    1.0901   -5.1202    0.0000 O   0  0  0  0  0  0  0  0  0  0  0  0
    2.7407   -6.5484    0.0000 C   0  0  0  0  0  0  0  0  0  0  0  0
    3.5657   -6.5481    0.0000 C   0  0  0  0  0  0  0  0  0  0  0  0
   -1.7223  -10.6744    0.0000 C   0  0  0  0  0  0  0  0  0  0  0  0
   -2.4360  -11.0882    0.0000 F   0  0  0  0  0  0  0  0  0  0  0  0
   -1.0070  -11.0856    0.0000 F   0  0  0  0  0  0  0  0  0  0  0  0
   -1.9417  -11.4667    0.0000 F   0  0  0  0  0  0  0  0  0  0  0  0
 15 10  2  0  0  0  0
  1 10  1  0  0  0  0
  6  4  1  0  0  0  0
  5  6  2  0  0  0  0
 16 17  2  0  0  0  0
  7  8  1  0  0  0  0
 17 18  1  0  0  0  0
  8  9  2  0  0  0  0
 18 19  2  0  0  0  0
  9  5  1  0  0  0  0
 19 20  1  0  0  0  0
  4  1  2  0  0  0  0
 20 21  2  0  0  0  0
 21 16  1  0  0  0  0
  3 16  1  0  0  0  0
  6  7  1  0  0  0  0
  9 22  1  0  0  0  0
 10 11  1  0  0  0  0
 22 23  1  0  0  0  0
 23 24  1  0  0  0  0
 11 12  2  0  0  0  0
 23 25  2  0  0  0  0
  2  3  2  0  0  0  0
 24 26  1  0  0  0  0
 12 13  1  0  0  0  0
 26 27  1  0  0  0  0
  3  7  1  0  0  0  0
 19 28  1  0  0  0  0
 13 14  2  0  0  0  0
 28 29  1  0  0  0  0
  1  2  1  0  0  0  0
 28 30  1  0  0  0  0
 14 15  1  0  0  0  0
 28 31  1  0  0  0  0
M  END
> <From> 
www.bindingDB.org

> <BindingDB Reactant_set_id>
50904818

> <Ligand InChI>
InChI=1S/C20H16F3N7O/c1-2-25-19(31)29-16-11-30-15(18-26-9-14(10-27-18)20(21,22)23)6-13(7-17(30)28-16)12-4-3-5-24-8-12/h3-11H,2H2,1H3,(H2,25,29,31)

> <Ligand InChI Key>
CYHRMQQEJPYYQU-UHFFFAOYSA-N

> <BindingDB MonomerID>
50378427

> <BindingDB Ligand Name>
CHEMBL565572

> <Target Name Assigned by Curator or DataSource>
DNA gyrase subunit B

> <Target Source Organism According to Curator or DataSource>
Streptococcus pneumoniae

> <Ki (nM)>


> <IC50 (nM)>
 163

> <Kd (nM)>


> <EC50 (nM)>


> <kon (M-1-s-1)>


> <koff (s-1)>


> <pH>


> <Temp C>


> <Curation/DataSource>
ChEMBL

> <Article DOI>
10.1016/j.bmcl.2009.07.141

> <PMID>
19683922

> <PubChem AID>


> <Patent Number>


> <Authors>
Starr, JT; Sciotti, RJ; Hanna, DL; Huband, MD; Mullins, LM; Cai, H; Gage, JW; Lockard, M; Rauckhorst, MR; Owen, RM; Lall, MS; Tomilo, M; Chen, H; McCurdy, SP; Barbachyn, MR

> <Institution>
Pfizer Inc.

> <Link to Ligand in BindingDB>
http://www.bindingdb.org/bind/chemsearch/marvin/MolStructure.jsp?monomerid=50378427

> <Link to Ligand-Target Pair in BindingDB>
http://www.bindingdb.org/jsp/dbsearch/PrimarySearch_ki.jsp?energyterm=kJ/mole&tag=pol&polymerid=50005944&target=DNA+gyrase+subunit+B&column=ki&startPg=0&Increment=50&submit=Search

> <Link to Ligand-Target Pair in BindingDB>
http://www.bindingdb.org/jsp/dbsearch/PrimarySearch_ki.jsp?energyterm=kJ/mole&tag=r21&monomerid=50378427&enzyme=DNA+gyrase+subunit+B&column=ki&startPg=0&Increment=50&submit=Search

> <Ligand HET ID in PDB>


> <PDB ID(s) for Ligand-Target Complex>


> <PubChem CID>
45484753

> <PubChem SID>
160857510

> <ChEBI ID of Ligand>


> <ChEMBL ID of Ligand>
CHEMBL565572

> <DrugBank ID of Ligand>


> <IUPHAR_GRAC ID of Ligand>


> <KEGG ID of Ligand>


> <ZINC ID of Ligand>
ZINC45245793

> <Number of Protein Chains in Target (>1 implies a multichain complex)>
1

> <BindingDB Target Chain Sequence>
MTEEIKNLQAQDYDASQIQVLEGLEAVRMRPGMYIGSTSKEGLHHLVWEIVDNSIDEALAGFASHIQVFIEPDDSITVVDDGRGIPVDIQEKTGRPAVETVFTVLHAGGKFGGGGYKVSGGLHGVGSSVVNALSTQLDVHVHKNGKIHYQEYRRGHVVADLEIVGDTDKTGTTVHFTPDPKIFTETTIFDFDKLNKRIQELAFLNRGLQISITDKRQGLEQTKHYHYEGGIASYVEYINENKDVIFDTPIYTDGEMDDITVEVAMQYTTGYHENVMSFANNIHTHEGGTHEQGFRTALTRVINDYARKNKLLKDNEDNLTGEDVREGLTAVISVKHPNPQFEGQTKTKLGNSEVVKITNRLFSEAFSDFLMENPQIAKRIVEKGILAAKARVAAKRAREVTRKKSGLEISNLPGKLADCSSNNPAETELFIVEGDSAGGSAKSGRNREFQAILPIRGKILNVEKASMDKILANEEIRSLFTAMGTGFGAEFDVSKARYQKLVLMTDADVDGAHIRTLLLTLIYRYMKPILEAGYVYIAQPPIYGVKVGSEIKEYIQPGADQEIKLQEALARYSEGRTKPTIQRYKGLGEMDDHQLWETTMDPEHRLMARVSVDDAAEADKIFDMLMGDRVEPRREFIEENAVYSTLDV

> <PDB ID(s) of Target Chain>
4Z2C,4Z2D,4Z2E

> <UniProt (SwissProt) Recommended Name of Target Chain>
DNA gyrase subunit B

> <UniProt (SwissProt) Entry Name of Target Chain>
GYRB_STRPN

> <UniProt (SwissProt) Primary ID of Target Chain>
P0A4L9

> <UniProt (SwissProt) Secondary ID(s) of Target Chain>
P48373

> <UniProt (SwissProt) Alternative ID(s) of Target Chain>


> <UniProt (TrEMBL) Submitted Name of Target Chain>


> <UniProt (TrEMBL) Entry Name of Target Chain>


> <UniProt (TrEMBL) Primary ID of Target Chain>


> <UniProt (TrEMBL) Secondary ID(s) of Target Chain>


> <UniProt (TrEMBL) Alternative ID(s) of Target Chain>


$$$$
 
  Mrv0541 11221409182D          

 44 47  0  0  0  0            999 V2000
   -0.2473    0.9000    0.0000 C   0  0  0  0  0  0  0  0  0  0  0  0
   -0.2484    0.0727    0.0000 C   0  0  0  0  0  0  0  0  0  0  0  0
    0.4664   -0.3402    0.0000 C   0  0  0  0  0  0  0  0  0  0  0  0
    0.4646    1.3128    0.0000 C   0  0  0  0  0  0  0  0  0  0  0  0
    1.1800    0.9037    0.0000 C   0  0  0  0  0  0  0  0  0  0  0  0
    1.1788    0.0752    0.0000 C   0  0  0  0  0  0  0  0  0  0  0  0
    1.8918   -0.3378    0.0000 C   0  0  0  0  0  0  0  0  0  0  0  0
    2.6104    0.0732    0.0000 C   0  0  0  0  0  0  0  0  0  0  0  0
    2.6116    0.9017    0.0000 C   0  0  0  0  0  0  0  0  0  0  0  0
    1.8941    1.3192    0.0000 O   0  0  0  0  0  0  0  0  0  0  0  0
    3.3271    1.3124    0.0000 O   0  0  0  0  0  0  0  0  0  0  0  0
    3.3237   -0.3413    0.0000 N   0  0  0  0  0  0  0  0  0  0  0  0
    4.0394    0.0692    0.0000 C   0  0  0  0  0  0  0  0  0  0  0  0
    4.7527   -0.3453    0.0000 C   0  0  0  0  0  0  0  0  0  0  0  0
    4.0417    0.8942    0.0000 O   0  0  0  0  0  0  0  0  0  0  0  0
    4.7449   -1.1677    0.0000 C   0  0  0  0  0  0  0  0  0  0  0  0
    5.4574   -1.5821    0.0000 C   0  0  0  0  0  0  0  0  0  0  0  0
    6.1740   -1.1716    0.0000 C   0  0  0  0  0  0  0  0  0  0  0  0
    6.1737   -0.3423    0.0000 C   0  0  0  0  0  0  0  0  0  0  0  0
    5.4606    0.0684    0.0000 C   0  0  0  0  0  0  0  0  0  0  0  0
    6.8879   -1.5851    0.0000 O   0  0  0  0  0  0  0  0  0  0  0  0
    5.4547   -2.4071    0.0000 C   0  0  0  0  0  0  0  0  0  0  0  0
    6.1678   -2.8220    0.0000 C   0  0  0  0  0  0  0  0  0  0  0  0
    6.1651   -3.6470    0.0000 C   0  0  0  0  0  0  0  0  0  0  0  0
    5.4493   -4.0571    0.0000 C   0  0  0  0  0  0  0  0  0  0  0  0
    6.8782   -4.0618    0.0000 C   0  0  0  0  0  0  0  0  0  0  0  0
    1.8894   -1.1628    0.0000 O   0  0  0  0  0  0  0  0  0  0  0  0
   -0.9618    1.3124    0.0000 O   0  0  0  0  0  0  0  0  0  0  0  0
   -1.6762    0.8997    0.0000 C   0  0  2  0  0  0  0  0  0  0  0  0
   -2.3887    1.3169    0.0000 O   0  0  0  0  0  0  0  0  0  0  0  0
   -3.1009    0.9077    0.0000 C   0  0  0  0  0  0  0  0  0  0  0  0
   -3.1050    0.0824    0.0000 C   0  0  1  0  0  0  0  0  0  0  0  0
   -2.3906   -0.3322    0.0000 C   0  0  2  0  0  0  0  0  0  0  0  0
   -1.6721    0.0786    0.0000 C   0  0  1  0  0  0  0  0  0  0  0  0
   -0.9575   -0.3336    0.0000 O   0  0  0  0  0  0  0  0  0  0  0  0
   -2.3932   -1.1572    0.0000 O   0  0  0  0  0  0  0  0  0  0  0  0
   -3.8209   -0.3276    0.0000 O   0  0  0  0  0  0  0  0  0  0  0  0
   -4.5339    0.0874    0.0000 C   0  0  0  0  0  0  0  0  0  0  0  0
   -3.3208    1.7083    0.0000 C   0  0  0  0  0  0  0  0  0  0  0  0
   -3.9042    0.6958    0.0000 C   0  0  0  0  0  0  0  0  0  0  0  0
   -3.1090   -1.5674    0.0000 C   0  0  0  0  0  0  0  0  0  0  0  0
   -3.1116   -2.3924    0.0000 N   0  0  0  0  0  0  0  0  0  0  0  0
   -3.8221   -1.1526    0.0000 O   0  0  0  0  0  0  0  0  0  0  0  0
    0.4621    2.1378    0.0000 C   0  0  0  0  0  0  0  0  0  0  0  0
 18 21  1  0  0  0  0
  9 10  1  0  0  0  0
 17 22  1  0  0  0  0
  5  6  1  0  0  0  0
 22 23  1  0  0  0  0
  9 11  2  0  0  0  0
 23 24  2  0  0  0  0
 24 25  1  0  0  0  0
  8 12  1  0  0  0  0
 24 26  1  0  0  0  0
  2  3  1  0  0  0  0
  7 27  1  0  0  0  0
 12 13  1  0  0  0  0
  1 28  1  0  0  0  0
  3  6  2  0  0  0  0
 29 28  1  1  0  0  0
 29 30  1  0  0  0  0
 13 14  1  0  0  0  0
  1  2  2  0  0  0  0
 13 15  2  0  0  0  0
  5  4  2  0  0  0  0
 14 16  2  0  0  0  0
 34 29  1  0  0  0  0
 30 31  1  0  0  0  0
 32 31  1  0  0  0  0
 33 32  1  0  0  0  0
 33 34  1  0  0  0  0
  4  1  1  0  0  0  0
 34 35  1  6  0  0  0
 16 17  1  0  0  0  0
 33 36  1  6  0  0  0
  5 10  1  0  0  0  0
 32 37  1  1  0  0  0
 17 18  2  0  0  0  0
 37 38  1  0  0  0  0
  6  7  1  0  0  0  0
 31 39  1  0  0  0  0
 18 19  1  0  0  0  0
 31 40  1  0  0  0  0
  7  8  2  0  0  0  0
 36 41  1  0  0  0  0
 19 20  2  0  0  0  0
 41 42  1  0  0  0  0
 20 14  1  0  0  0  0
 41 43  2  0  0  0  0
  8  9  1  0  0  0  0
  4 44  1  0  0  0  0
M  END
> <From> 
www.bindingDB.org

> <BindingDB Reactant_set_id>
50524128

> <Ligand InChI>
InChI=1S/C31H36N2O11/c1-14(2)7-8-16-13-17(9-11-19(16)34)27(37)33-21-22(35)18-10-12-20(15(3)24(18)42-28(21)38)41-29-23(36)25(43-30(32)39)26(40-6)31(4,5)44-29/h7,9-13,23,25-26,29,34-36H,8H2,1-6H3,(H2,32,39)(H,33,37)/t23-,25+,26-,29-/m1/s1

> <Ligand InChI Key>
YJQPYGGHQPGBLI-KGSXXDOSSA-N

> <BindingDB MonomerID>
50226181

> <BindingDB Ligand Name>
(3R,4S,5R,6R)-5-hydroxy-6-(4-hydroxy-3-(4-hydroxy-3-(3-methylbut-2-enyl)benzamido)-2-oxo-2H-chromen-7-yloxy)-3-methoxy-2,2-dimethyl-tetrahydro-2H-pyran-4-yl carbamate::(3R,4S,5R,6R)-5-hydroxy-6-(4-hydroxy-3-(4-hydroxy-3-(3-methylbut-2-enyl)benzamido)-8-methyl-2-oxo-2H-chromen-7-yloxy)-3-methoxy-2,2-dimethyl-tetrahydro-2H-pyran-4-yl carbamate::CHEMBL36506::Carbamic acid (3R,4S,5R,6R)-5-hydroxy-6-{4-hydroxy-3-[4-hydroxy-3-(3-methyl-but-2-enyl)-benzoylamino]-8-methyl-2-oxo-2H-chromen-7-yloxy}-3-methoxy-2,2-dimethyl-tetrahydro-pyran-4-yl ester::Carbamic acid (3R,4S,5R,6R)-5-hydroxy-6-{4-hydroxy-3-[4-hydroxy-3-(4-methyl-pent-3-enyl)-benzoylamino]-8-methyl-2-oxo-2H-chromen-7-yloxy}-3-methoxy-2,2-dimethyl-tetrahydro-pyran-4-yl ester::Carbamic acid 5-hydroxy-6-{4-hydroxy-3-[4-hydroxy-3-(3-methyl-but-2-enyl)-benzoylamino]-8-methyl-2-oxo-2H-chromen-7-yloxy}-3-methoxy-2,2-dimethyl-tetrahydro-pyran-4-yl ester::Carbamic acid 5-hydroxy-6-{4-hydroxy-3-[4-hydroxy-3-(3-methyl-but-2-enyl)-benzoylamino]-8-methyl-2-oxo-2H-chromen-7-yloxy}-3-methoxy-2,2-dimethyl-tetrahydro-pyran-4-yl ester(Novobiocin)::NOVOBIOCIN

> <Target Name Assigned by Curator or DataSource>
DNA Gyrase Subunit B

> <Target Source Organism According to Curator or DataSource>
Escherichia coli

> <Ki (nM)>


> <IC50 (nM)>
 170

> <Kd (nM)>


> <EC50 (nM)>


> <kon (M-1-s-1)>


> <koff (s-1)>


> <pH>


> <Temp C>


> <Curation/DataSource>
ChEMBL

> <Article DOI>
10.1021/acs.jmedchem.6b00864

> <PMID>
27541007

> <PubChem AID>


> <Patent Number>


> <Authors>
Gjorgjieva, M; Tomaic, T; Barancokova, M; Katsamakas, S; Ila, J; Tammela, P; Peterlin Maic, L; Kikelj, D

> <Institution>
University of Ljubljana

> <Link to Ligand in BindingDB>
http://www.bindingdb.org/bind/chemsearch/marvin/MolStructure.jsp?monomerid=50226181

> <Link to Ligand-Target Pair in BindingDB>
http://www.bindingdb.org/jsp/dbsearch/PrimarySearch_ki.jsp?energyterm=kJ/mole&tag=pol&polymerid=2630&target=DNA+Gyrase+Subunit+B&column=ki&startPg=0&Increment=50&submit=Search

> <Link to Ligand-Target Pair in BindingDB>
http://www.bindingdb.org/jsp/dbsearch/PrimarySearch_ki.jsp?energyterm=kJ/mole&tag=r21&monomerid=50226181&enzyme=DNA+Gyrase+Subunit+B&column=ki&startPg=0&Increment=50&submit=Search

> <Ligand HET ID in PDB>
NOV

> <PDB ID(s) for Ligand-Target Complex>
1AJ6,1KIJ,1S14,3LPS,4URN,4URO

> <PubChem CID>
54675769

> <PubChem SID>
104097057

> <ChEBI ID of Ligand>
28368

> <ChEMBL ID of Ligand>
CHEMBL36506

> <DrugBank ID of Ligand>
DB01051

> <IUPHAR_GRAC ID of Ligand>


> <KEGG ID of Ligand>
C05080

> <ZINC ID of Ligand>
ZINC14879999

> <Number of Protein Chains in Target (>1 implies a multichain complex)>
1

> <BindingDB Target Chain Sequence>
MSNSYDSSSIKVLKGLDAVRKRPGMYIGDTDDGTGLHHMVFEVVDNAIDEALAGHCKEII
VTIHADNSVSVQDDGRGIPTGIHPEEGVSAAEVIMTVLHAGGKFDDNSYKVSGGLHGVGV
SVVNALSQKLELVIQREGKIHRQIYEHGVPQAPLAVTGETEKTGTMVRFWPSLETFTNVT
EFEYEILAKRLRELSFLNSGVSIRLRDKRDGKEDHFHYEGGIKAFVEYLNKNKTPIHPNI
FYFSTEKDGIGVEVALQWNDGFQENIYCFTNNIPQRDGGTHLAGFRAAMTRTLNAYMDKE
GYSKKAKVSATGDDAREGLIAVVSVKVPDPKFSSQTKDKLVSSEVKSAVEQQMNELLAEY
LLENPTDAKIVVGKIIDAARAREAARRAREMTRRKGALDLAGLPGKLADCQERDPALSEL
YLVEGDSAGGSAKQGRNRKNQAILPLKGKILNVEKARFDKMLSSQEVATLITALGCGIGR
DEYNPDKLRYHSIIIMTDADVDGSHIRTLLLTFFYRQMPEIVERGHVYIAQPPLYKVKKG
KQEQYIKDDEAMDQYQISIALDGATLHTNASAPALAGEALEKLVSEYNATQKMINRMERR
YPKAMLKELIYQPTLTEADLSDEQTVTRWVNALVSELNDKEQHGSQWKFDVHTNAEQNLF
EPIVRVRTHGVDTDYPLDHEFITGGEYRRICTLGEKLRGLLEEDAFIERGERRQPVASFE
QALDWLVKESRRGLSIQRYKGLGEMNPEQLWETTMDPESRRMLRVTVKDAIAADQLFTTL
MGDAVEPRRAFIEENALKAANIDI

> <PDB ID(s) of Target Chain>
1KZN,3G7E,3NUH,4DUH,4HYP,4KFG,4PRV,4PRX,4PU9,4WUB,4WUC,4WUD,4XTJ,4ZVI,5L3J,5MMN,5MMO,5MMP,5Z4H,5Z4O,5Z9B,5Z9E,5Z9F,5Z9L,5Z9M,5Z9N,5Z9Q,6ENG,6F86,6F8J,6F94,6F96

> <UniProt (SwissProt) Recommended Name of Target Chain>
DNA gyrase subunit B

> <UniProt (SwissProt) Entry Name of Target Chain>
GYRB_ECOLI

> <UniProt (SwissProt) Primary ID of Target Chain>
P0AES6

> <UniProt (SwissProt) Secondary ID(s) of Target Chain>
O08438,P06982,Q2M811

> <UniProt (SwissProt) Alternative ID(s) of Target Chain>


> <UniProt (TrEMBL) Submitted Name of Target Chain>


> <UniProt (TrEMBL) Entry Name of Target Chain>


> <UniProt (TrEMBL) Primary ID of Target Chain>


> <UniProt (TrEMBL) Secondary ID(s) of Target Chain>


> <UniProt (TrEMBL) Alternative ID(s) of Target Chain>


$$$$

  Mrv0541 11241420052D          

 30 32  0  0  0  0            999 V2000
   24.0866  -21.8672    0.0000 C   0  0  0  0  0  0  0  0  0  0  0  0
   24.0854  -22.6945    0.0000 C   0  0  0  0  0  0  0  0  0  0  0  0
   24.8003  -23.1074    0.0000 N   0  0  0  0  0  0  0  0  0  0  0  0
   24.7985  -21.4543    0.0000 C   0  0  0  0  0  0  0  0  0  0  0  0
   25.5139  -21.8635    0.0000 C   0  0  0  0  0  0  0  0  0  0  0  0
   25.5142  -22.6945    0.0000 C   0  0  0  0  0  0  0  0  0  0  0  0
   26.3046  -22.9511    0.0000 S   0  0  0  0  0  0  0  0  0  0  0  0
   26.7930  -22.2787    0.0000 C   0  0  0  0  0  0  0  0  0  0  0  0
   26.3042  -21.6065    0.0000 N   0  0  0  0  0  0  0  0  0  0  0  0
   27.6180  -22.2784    0.0000 N   0  0  0  0  0  0  0  0  0  0  0  0
   28.0302  -21.5637    0.0000 C   0  0  0  0  0  0  0  0  0  0  0  0
   28.8553  -21.5634    0.0000 O   0  0  0  0  0  0  0  0  0  0  0  0
   27.6175  -20.8494    0.0000 N   0  0  0  0  0  0  0  0  0  0  0  0
   28.0297  -20.1347    0.0000 C   0  0  0  0  0  0  0  0  0  0  0  0
   27.6170  -19.4204    0.0000 C   0  0  0  0  0  0  0  0  0  0  0  0
   23.3706  -23.1064    0.0000 O   0  0  0  0  0  0  0  0  0  0  0  0
   24.8005  -23.9325    0.0000 C   0  0  0  0  0  0  0  0  0  0  0  0
   24.0861  -24.3451    0.0000 C   0  0  0  0  0  0  0  0  0  0  0  0
   25.5151  -24.3448    0.0000 C   0  0  0  0  0  0  0  0  0  0  0  0
   23.3720  -21.4548    0.0000 C   0  0  0  0  0  0  0  0  0  0  0  0
   23.3645  -20.6336    0.0000 C   0  0  0  0  0  0  0  0  0  0  0  0
   22.6479  -20.2227    0.0000 C   0  0  0  0  0  0  0  0  0  0  0  0
   21.9369  -20.6396    0.0000 C   0  0  0  0  0  0  0  0  0  0  0  0
   21.9424  -21.4656    0.0000 N   0  0  0  0  0  0  0  0  0  0  0  0
   22.6648  -21.8727    0.0000 C   0  0  0  0  0  0  0  0  0  0  0  0
   21.2196  -20.2318    0.0000 O   0  0  0  0  0  0  0  0  0  0  0  0
   21.2313  -21.8840    0.0000 C   0  0  0  0  0  0  0  0  0  0  0  0
   20.5134  -21.4777    0.0000 C   0  0  0  0  0  0  0  0  0  0  0  0
   19.8025  -21.8961    0.0000 O   0  0  0  0  0  0  0  0  0  0  0  0
   19.0845  -21.4898    0.0000 C   0  0  0  0  0  0  0  0  0  0  0  0
  1  2  1  0  0  0  0
  2  3  1  0  0  0  0
  3  6  1  0  0  0  0
  5  4  1  0  0  0  0
  4  1  2  0  0  0  0
  5  6  2  0  0  0  0
  6  7  1  0  0  0  0
  7  8  1  0  0  0  0
  8  9  2  0  0  0  0
  9  5  1  0  0  0  0
  8 10  1  0  0  0  0
 10 11  1  0  0  0  0
 11 12  2  0  0  0  0
 11 13  1  0  0  0  0
 13 14  1  0  0  0  0
 14 15  1  0  0  0  0
  2 16  2  0  0  0  0
  3 17  1  0  0  0  0
 17 18  1  0  0  0  0
 17 19  1  0  0  0  0
  1 20  1  0  0  0  0
 21 22  2  0  0  0  0
 22 23  1  0  0  0  0
 23 24  1  0  0  0  0
 24 25  1  0  0  0  0
 25 20  2  0  0  0  0
 20 21  1  0  0  0  0
 23 26  2  0  0  0  0
 24 27  1  0  0  0  0
 27 28  1  0  0  0  0
 28 29  1  0  0  0  0
 29 30  1  0  0  0  0
M  END
> <From> 
www.bindingDB.org

> <BindingDB Reactant_set_id>
51091610

> <Ligand InChI>
InChI=1S/C20H25N5O4S/c1-5-21-19(28)23-20-22-15-10-14(17(27)25(12(2)3)18(15)30-20)13-6-7-16(26)24(11-13)8-9-29-4/h6-7,10-12H,5,8-9H2,1-4H3,(H2,21,22,23,28)

> <Ligand InChI Key>
XXYDWRHARDMGQK-UHFFFAOYSA-N

> <BindingDB MonomerID>
50447298

> <BindingDB Ligand Name>
CHEMBL3114209

> <Target Name Assigned by Curator or DataSource>
DNA gyrase subunit B

> <Target Source Organism According to Curator or DataSource>


> <Ki (nM)>


> <IC50 (nM)>
 175

> <Kd (nM)>


> <EC50 (nM)>


> <kon (M-1-s-1)>


> <koff (s-1)>


> <pH>


> <Temp C>


> <Curation/DataSource>
ChEMBL

> <Article DOI>
10.1016/j.bmcl.2013.12.080

> <PMID>
24405701

> <PubChem AID>


> <Patent Number>


> <Authors>
Kale, RR; Kale, MG; Waterson, D; Raichurkar, A; Hameed, SP; Manjunatha, MR; Kishore Reddy, BK; Malolanarasimhan, K; Shinde, V; Koushik, K; Jena, LK; Menasinakai, S; Humnabadkar, V; Madhavapeddi, P; Basavarajappa, H; Sharma, S; Nandishaiah, R; Mahesh Kumar, KN; Ganguly, S; Ahuja, V; Gaonkar, S; Naveen Kumar, CN; Ogg, D; Boriack-Sjodin, PA; Sambandamurthy, VK; de Sousa, SM; Ghorpade, SR

> <Institution>
AstraZeneca

> <Link to Ligand in BindingDB>
http://www.bindingdb.org/bind/chemsearch/marvin/MolStructure.jsp?monomerid=50447298

> <Link to Ligand-Target Pair in BindingDB>
http://www.bindingdb.org/jsp/dbsearch/PrimarySearch_ki.jsp?energyterm=kJ/mole&tag=pol&polymerid=50006452&target=DNA+gyrase+subunit+B&column=ki&startPg=0&Increment=50&submit=Search

> <Link to Ligand-Target Pair in BindingDB>
http://www.bindingdb.org/jsp/dbsearch/PrimarySearch_ki.jsp?energyterm=kJ/mole&tag=r21&monomerid=50447298&enzyme=DNA+gyrase+subunit+B&column=ki&startPg=0&Increment=50&submit=Search

> <Ligand HET ID in PDB>


> <PDB ID(s) for Ligand-Target Complex>


> <PubChem CID>
76314161

> <PubChem SID>
194945194

> <ChEBI ID of Ligand>


> <ChEMBL ID of Ligand>
CHEMBL3114209

> <DrugBank ID of Ligand>


> <IUPHAR_GRAC ID of Ligand>


> <KEGG ID of Ligand>


> <ZINC ID of Ligand>


> <Number of Protein Chains in Target (>1 implies a multichain complex)>
1

> <BindingDB Target Chain Sequence>
MAAQKNNAPKEYGADSITILEGLEAVRKRPGMYIGSTGERGLHHLIWEVVDNAVDEAMAGFATRVDVKIHADGSVEVRDDGRGIPVEMHATGMPTIDVVMTQLHAGGKFDGETYAVSGGLHGVGVSVVNALSTRLEATVLRDGYEWFQYYDRSVPGKLKQGGETKETGTTIRFWADPEIFETTDYNFETVARRLQEMAFLNKGLTIELTDERVTAEEVVDDVVKDTAEAPKTADEKAAEATGPSKVKHRVFHYPGGLVDYVKHINRTKTPIQQSIIDFDGKGPGHEVEIAMQWNAGYSESVHTFANTINTHEGGTHEEGFRAALTSVVNRYAKDKKLLKDKDPNLTGDDIREGLAAVISVKVAEPQFEGQTKTKLGNTEVKSFVQKICNEQLQHWFEANPAEAKTVVNKAVSSAQARIAARKARELVRRKSATDIGGLPGKLADCRSTDPSKSELYVVEGDSAGGSAKSGRDSMFQAILPLRGKIINVEKARIDRVLKNTEVQSIITALGTGIHDEFDISKLRYHKIVLMADADVDGQHISTLLLTLLFRFMKPLVENGHIFLAQPPLYKLKWQRSEPEFAYSDRERDGLLEAGRAAGKKINVDDGIQRYKGLGEMDAKELWETTMDPSVRVLRQVTLDDAAAADELFSILMGEDVEARRSFITRNAKDVRFLDV

> <PDB ID(s) of Target Chain>
4BAE

> <UniProt (SwissProt) Recommended Name of Target Chain>
DNA gyrase subunit B

> <UniProt (SwissProt) Entry Name of Target Chain>
GYRB_MYCSM

> <UniProt (SwissProt) Primary ID of Target Chain>
P0C559

> <UniProt (SwissProt) Secondary ID(s) of Target Chain>
P48355,Q59555

> <UniProt (SwissProt) Alternative ID(s) of Target Chain>


> <UniProt (TrEMBL) Submitted Name of Target Chain>


> <UniProt (TrEMBL) Entry Name of Target Chain>


> <UniProt (TrEMBL) Primary ID of Target Chain>


> <UniProt (TrEMBL) Secondary ID(s) of Target Chain>


> <UniProt (TrEMBL) Alternative ID(s) of Target Chain>


$$$$
 
  Mrv0541 11221409182D          

 44 47  0  0  0  0            999 V2000
   -0.2473    0.9000    0.0000 C   0  0  0  0  0  0  0  0  0  0  0  0
   -0.2484    0.0727    0.0000 C   0  0  0  0  0  0  0  0  0  0  0  0
    0.4664   -0.3402    0.0000 C   0  0  0  0  0  0  0  0  0  0  0  0
    0.4646    1.3128    0.0000 C   0  0  0  0  0  0  0  0  0  0  0  0
    1.1800    0.9037    0.0000 C   0  0  0  0  0  0  0  0  0  0  0  0
    1.1788    0.0752    0.0000 C   0  0  0  0  0  0  0  0  0  0  0  0
    1.8918   -0.3378    0.0000 C   0  0  0  0  0  0  0  0  0  0  0  0
    2.6104    0.0732    0.0000 C   0  0  0  0  0  0  0  0  0  0  0  0
    2.6116    0.9017    0.0000 C   0  0  0  0  0  0  0  0  0  0  0  0
    1.8941    1.3192    0.0000 O   0  0  0  0  0  0  0  0  0  0  0  0
    3.3271    1.3124    0.0000 O   0  0  0  0  0  0  0  0  0  0  0  0
    3.3237   -0.3413    0.0000 N   0  0  0  0  0  0  0  0  0  0  0  0
    4.0394    0.0692    0.0000 C   0  0  0  0  0  0  0  0  0  0  0  0
    4.7527   -0.3453    0.0000 C   0  0  0  0  0  0  0  0  0  0  0  0
    4.0417    0.8942    0.0000 O   0  0  0  0  0  0  0  0  0  0  0  0
    4.7449   -1.1677    0.0000 C   0  0  0  0  0  0  0  0  0  0  0  0
    5.4574   -1.5821    0.0000 C   0  0  0  0  0  0  0  0  0  0  0  0
    6.1740   -1.1716    0.0000 C   0  0  0  0  0  0  0  0  0  0  0  0
    6.1737   -0.3423    0.0000 C   0  0  0  0  0  0  0  0  0  0  0  0
    5.4606    0.0684    0.0000 C   0  0  0  0  0  0  0  0  0  0  0  0
    6.8879   -1.5851    0.0000 O   0  0  0  0  0  0  0  0  0  0  0  0
    5.4547   -2.4071    0.0000 C   0  0  0  0  0  0  0  0  0  0  0  0
    6.1678   -2.8220    0.0000 C   0  0  0  0  0  0  0  0  0  0  0  0
    6.1651   -3.6470    0.0000 C   0  0  0  0  0  0  0  0  0  0  0  0
    5.4493   -4.0571    0.0000 C   0  0  0  0  0  0  0  0  0  0  0  0
    6.8782   -4.0618    0.0000 C   0  0  0  0  0  0  0  0  0  0  0  0
    1.8894   -1.1628    0.0000 O   0  0  0  0  0  0  0  0  0  0  0  0
   -0.9618    1.3124    0.0000 O   0  0  0  0  0  0  0  0  0  0  0  0
   -1.6762    0.8997    0.0000 C   0  0  2  0  0  0  0  0  0  0  0  0
   -2.3887    1.3169    0.0000 O   0  0  0  0  0  0  0  0  0  0  0  0
   -3.1009    0.9077    0.0000 C   0  0  0  0  0  0  0  0  0  0  0  0
   -3.1050    0.0824    0.0000 C   0  0  1  0  0  0  0  0  0  0  0  0
   -2.3906   -0.3322    0.0000 C   0  0  2  0  0  0  0  0  0  0  0  0
   -1.6721    0.0786    0.0000 C   0  0  1  0  0  0  0  0  0  0  0  0
   -0.9575   -0.3336    0.0000 O   0  0  0  0  0  0  0  0  0  0  0  0
   -2.3932   -1.1572    0.0000 O   0  0  0  0  0  0  0  0  0  0  0  0
   -3.8209   -0.3276    0.0000 O   0  0  0  0  0  0  0  0  0  0  0  0
   -4.5339    0.0874    0.0000 C   0  0  0  0  0  0  0  0  0  0  0  0
   -3.3208    1.7083    0.0000 C   0  0  0  0  0  0  0  0  0  0  0  0
   -3.9042    0.6958    0.0000 C   0  0  0  0  0  0  0  0  0  0  0  0
   -3.1090   -1.5674    0.0000 C   0  0  0  0  0  0  0  0  0  0  0  0
   -3.1116   -2.3924    0.0000 N   0  0  0  0  0  0  0  0  0  0  0  0
   -3.8221   -1.1526    0.0000 O   0  0  0  0  0  0  0  0  0  0  0  0
    0.4621    2.1378    0.0000 C   0  0  0  0  0  0  0  0  0  0  0  0
 18 21  1  0  0  0  0
  9 10  1  0  0  0  0
 17 22  1  0  0  0  0
  5  6  1  0  0  0  0
 22 23  1  0  0  0  0
  9 11  2  0  0  0  0
 23 24  2  0  0  0  0
 24 25  1  0  0  0  0
  8 12  1  0  0  0  0
 24 26  1  0  0  0  0
  2  3  1  0  0  0  0
  7 27  1  0  0  0  0
 12 13  1  0  0  0  0
  1 28  1  0  0  0  0
  3  6  2  0  0  0  0
 29 28  1  1  0  0  0
 29 30  1  0  0  0  0
 13 14  1  0  0  0  0
  1  2  2  0  0  0  0
 13 15  2  0  0  0  0
  5  4  2  0  0  0  0
 14 16  2  0  0  0  0
 34 29  1  0  0  0  0
 30 31  1  0  0  0  0
 32 31  1  0  0  0  0
 33 32  1  0  0  0  0
 33 34  1  0  0  0  0
  4  1  1  0  0  0  0
 34 35  1  6  0  0  0
 16 17  1  0  0  0  0
 33 36  1  6  0  0  0
  5 10  1  0  0  0  0
 32 37  1  1  0  0  0
 17 18  2  0  0  0  0
 37 38  1  0  0  0  0
  6  7  1  0  0  0  0
 31 39  1  0  0  0  0
 18 19  1  0  0  0  0
 31 40  1  0  0  0  0
  7  8  2  0  0  0  0
 36 41  1  0  0  0  0
 19 20  2  0  0  0  0
 41 42  1  0  0  0  0
 20 14  1  0  0  0  0
 41 43  2  0  0  0  0
  8  9  1  0  0  0  0
  4 44  1  0  0  0  0
M  END
> <From> 
www.bindingDB.org

> <BindingDB Reactant_set_id>
50426752

> <Ligand InChI>
InChI=1S/C31H36N2O11/c1-14(2)7-8-16-13-17(9-11-19(16)34)27(37)33-21-22(35)18-10-12-20(15(3)24(18)42-28(21)38)41-29-23(36)25(43-30(32)39)26(40-6)31(4,5)44-29/h7,9-13,23,25-26,29,34-36H,8H2,1-6H3,(H2,32,39)(H,33,37)/t23-,25+,26-,29-/m1/s1

> <Ligand InChI Key>
YJQPYGGHQPGBLI-KGSXXDOSSA-N

> <BindingDB MonomerID>
50226181

> <BindingDB Ligand Name>
(3R,4S,5R,6R)-5-hydroxy-6-(4-hydroxy-3-(4-hydroxy-3-(3-methylbut-2-enyl)benzamido)-2-oxo-2H-chromen-7-yloxy)-3-methoxy-2,2-dimethyl-tetrahydro-2H-pyran-4-yl carbamate::(3R,4S,5R,6R)-5-hydroxy-6-(4-hydroxy-3-(4-hydroxy-3-(3-methylbut-2-enyl)benzamido)-8-methyl-2-oxo-2H-chromen-7-yloxy)-3-methoxy-2,2-dimethyl-tetrahydro-2H-pyran-4-yl carbamate::CHEMBL36506::Carbamic acid (3R,4S,5R,6R)-5-hydroxy-6-{4-hydroxy-3-[4-hydroxy-3-(3-methyl-but-2-enyl)-benzoylamino]-8-methyl-2-oxo-2H-chromen-7-yloxy}-3-methoxy-2,2-dimethyl-tetrahydro-pyran-4-yl ester::Carbamic acid (3R,4S,5R,6R)-5-hydroxy-6-{4-hydroxy-3-[4-hydroxy-3-(4-methyl-pent-3-enyl)-benzoylamino]-8-methyl-2-oxo-2H-chromen-7-yloxy}-3-methoxy-2,2-dimethyl-tetrahydro-pyran-4-yl ester::Carbamic acid 5-hydroxy-6-{4-hydroxy-3-[4-hydroxy-3-(3-methyl-but-2-enyl)-benzoylamino]-8-methyl-2-oxo-2H-chromen-7-yloxy}-3-methoxy-2,2-dimethyl-tetrahydro-pyran-4-yl ester::Carbamic acid 5-hydroxy-6-{4-hydroxy-3-[4-hydroxy-3-(3-methyl-but-2-enyl)-benzoylamino]-8-methyl-2-oxo-2H-chromen-7-yloxy}-3-methoxy-2,2-dimethyl-tetrahydro-pyran-4-yl ester(Novobiocin)::NOVOBIOCIN

> <Target Name Assigned by Curator or DataSource>
DNA gyrase subunit B

> <Target Source Organism According to Curator or DataSource>


> <Ki (nM)>


> <IC50 (nM)>
 180

> <Kd (nM)>


> <EC50 (nM)>


> <kon (M-1-s-1)>


> <koff (s-1)>


> <pH>


> <Temp C>


> <Curation/DataSource>
ChEMBL

> <Article DOI>
10.1016/j.ejmech.2015.06.032

> <PMID>
26318054

> <PubChem AID>


> <Patent Number>


> <Authors>
Medapi, B; Suryadevara, P; Renuka, J; Sridevi, JP; Yogeeswari, P; Sriram, D

> <Institution>
Birla Institute of Technology&amp;Science

> <Link to Ligand in BindingDB>
http://www.bindingdb.org/bind/chemsearch/marvin/MolStructure.jsp?monomerid=50226181

> <Link to Ligand-Target Pair in BindingDB>
http://www.bindingdb.org/jsp/dbsearch/PrimarySearch_ki.jsp?energyterm=kJ/mole&tag=pol&polymerid=50006452&target=DNA+gyrase+subunit+B&column=ki&startPg=0&Increment=50&submit=Search

> <Link to Ligand-Target Pair in BindingDB>
http://www.bindingdb.org/jsp/dbsearch/PrimarySearch_ki.jsp?energyterm=kJ/mole&tag=r21&monomerid=50226181&enzyme=DNA+gyrase+subunit+B&column=ki&startPg=0&Increment=50&submit=Search

> <Ligand HET ID in PDB>
NOV

> <PDB ID(s) for Ligand-Target Complex>
1AJ6,1KIJ,1S14,3LPS,4URN,4URO

> <PubChem CID>
54675769

> <PubChem SID>
104097057

> <ChEBI ID of Ligand>
28368

> <ChEMBL ID of Ligand>
CHEMBL36506

> <DrugBank ID of Ligand>
DB01051

> <IUPHAR_GRAC ID of Ligand>


> <KEGG ID of Ligand>
C05080

> <ZINC ID of Ligand>
ZINC14879999

> <Number of Protein Chains in Target (>1 implies a multichain complex)>
1

> <BindingDB Target Chain Sequence>
MAAQKNNAPKEYGADSITILEGLEAVRKRPGMYIGSTGERGLHHLIWEVVDNAVDEAMAGFATRVDVKIHADGSVEVRDDGRGIPVEMHATGMPTIDVVMTQLHAGGKFDGETYAVSGGLHGVGVSVVNALSTRLEATVLRDGYEWFQYYDRSVPGKLKQGGETKETGTTIRFWADPEIFETTDYNFETVARRLQEMAFLNKGLTIELTDERVTAEEVVDDVVKDTAEAPKTADEKAAEATGPSKVKHRVFHYPGGLVDYVKHINRTKTPIQQSIIDFDGKGPGHEVEIAMQWNAGYSESVHTFANTINTHEGGTHEEGFRAALTSVVNRYAKDKKLLKDKDPNLTGDDIREGLAAVISVKVAEPQFEGQTKTKLGNTEVKSFVQKICNEQLQHWFEANPAEAKTVVNKAVSSAQARIAARKARELVRRKSATDIGGLPGKLADCRSTDPSKSELYVVEGDSAGGSAKSGRDSMFQAILPLRGKIINVEKARIDRVLKNTEVQSIITALGTGIHDEFDISKLRYHKIVLMADADVDGQHISTLLLTLLFRFMKPLVENGHIFLAQPPLYKLKWQRSEPEFAYSDRERDGLLEAGRAAGKKINVDDGIQRYKGLGEMDAKELWETTMDPSVRVLRQVTLDDAAAADELFSILMGEDVEARRSFITRNAKDVRFLDV

> <PDB ID(s) of Target Chain>
4BAE

> <UniProt (SwissProt) Recommended Name of Target Chain>
DNA gyrase subunit B

> <UniProt (SwissProt) Entry Name of Target Chain>
GYRB_MYCSM

> <UniProt (SwissProt) Primary ID of Target Chain>
P0C559

> <UniProt (SwissProt) Secondary ID(s) of Target Chain>
P48355,Q59555

> <UniProt (SwissProt) Alternative ID(s) of Target Chain>


> <UniProt (TrEMBL) Submitted Name of Target Chain>


> <UniProt (TrEMBL) Entry Name of Target Chain>


> <UniProt (TrEMBL) Primary ID of Target Chain>


> <UniProt (TrEMBL) Secondary ID(s) of Target Chain>


> <UniProt (TrEMBL) Alternative ID(s) of Target Chain>


$$$$

  Mrv0541 11241415502D          

 44 47  0  0  1  0            999 V2000
   10.7542   -7.9589    0.0000 C   0  0  0  0  0  0  0  0  0  0  0  0
   10.0397   -7.5464    0.0000 O   0  0  0  0  0  0  0  0  0  0  0  0
   10.0397   -6.7214    0.0000 C   0  0  2  0  0  0  0  0  0  0  0  0
    9.3253   -6.3089    0.0000 C   0  0  1  0  0  0  0  0  0  0  0  0
    8.6108   -6.7214    0.0000 O   0  0  0  0  0  0  0  0  0  0  0  0
    8.6108   -7.5464    0.0000 C   0  0  0  0  0  0  0  0  0  0  0  0
    9.3253   -7.9589    0.0000 O   0  0  0  0  0  0  0  0  0  0  0  0
    7.8963   -7.9589    0.0000 N   0  0  0  0  0  0  0  0  0  0  0  0
    9.3253   -5.4839    0.0000 C   0  0  2  0  0  0  0  0  0  0  0  0
    8.6108   -5.0714    0.0000 O   0  0  0  0  0  0  0  0  0  0  0  0
   10.0397   -5.0714    0.0000 C   0  0  1  0  0  0  0  0  0  0  0  0
   10.0397   -4.2464    0.0000 O   0  0  0  0  0  0  0  0  0  0  0  0
   10.7542   -3.8339    0.0000 C   0  0  0  0  0  0  0  0  0  0  0  0
   10.7542   -3.0089    0.0000 C   0  0  0  0  0  0  0  0  0  0  0  0
   11.4687   -2.5964    0.0000 C   0  0  0  0  0  0  0  0  0  0  0  0
   12.1831   -3.0089    0.0000 C   0  0  0  0  0  0  0  0  0  0  0  0
   12.8976   -2.5964    0.0000 C   0  0  0  0  0  0  0  0  0  0  0  0
   13.6121   -3.0089    0.0000 C   0  0  0  0  0  0  0  0  0  0  0  0
   14.3266   -2.5964    0.0000 N   0  0  0  0  0  0  0  0  0  0  0  0
   15.0410   -3.0089    0.0000 C   0  0  0  0  0  0  0  0  0  0  0  0
   15.0410   -3.8339    0.0000 O   0  0  0  0  0  0  0  0  0  0  0  0
   15.7555   -2.5964    0.0000 C   0  0  0  0  0  0  0  0  0  0  0  0
   15.7555   -1.7714    0.0000 C   0  0  0  0  0  0  0  0  0  0  0  0
   16.4700   -1.3589    0.0000 C   0  0  0  0  0  0  0  0  0  0  0  0
   17.1844   -1.7714    0.0000 C   0  0  0  0  0  0  0  0  0  0  0  0
   17.8989   -1.3589    0.0000 O   0  0  0  0  0  0  0  0  0  0  0  0
   17.1844   -2.5964    0.0000 C   0  0  0  0  0  0  0  0  0  0  0  0
   17.8989   -3.0089    0.0000 C   0  0  0  0  0  0  0  0  0  0  0  0
   18.6134   -2.5964    0.0000 C   0  0  0  0  0  0  0  0  0  0  0  0
   19.3279   -3.0089    0.0000 C   0  0  0  0  0  0  0  0  0  0  0  0
   20.0423   -2.5964    0.0000 C   0  0  0  0  0  0  0  0  0  0  0  0
   19.3279   -3.8339    0.0000 C   0  0  0  0  0  0  0  0  0  0  0  0
   16.4700   -3.0089    0.0000 C   0  0  0  0  0  0  0  0  0  0  0  0
   13.6121   -3.8339    0.0000 C   0  0  0  0  0  0  0  0  0  0  0  0
   14.3266   -4.2464    0.0000 O   0  0  0  0  0  0  0  0  0  0  0  0
   12.8976   -4.2464    0.0000 O   0  0  0  0  0  0  0  0  0  0  0  0
   12.1831   -3.8339    0.0000 C   0  0  0  0  0  0  0  0  0  0  0  0
   11.4687   -4.2464    0.0000 C   0  0  0  0  0  0  0  0  0  0  0  0
   11.4687   -5.0714    0.0000 C   0  0  0  0  0  0  0  0  0  0  0  0
   12.8976   -1.7714    0.0000 O   0  0  0  0  0  0  0  0  0  0  0  0
   10.7542   -5.4839    0.0000 O   0  0  0  0  0  0  0  0  0  0  0  0
   10.7542   -6.3089    0.0000 C   0  0  0  0  0  0  0  0  0  0  0  0
   11.5787   -6.3377    0.0000 C   0  0  0  0  0  0  0  0  0  0  0  0
   11.1914   -7.0085    0.0000 C   0  0  0  0  0  0  0  0  0  0  0  0
  1  2  1  0  0  0  0
  3  2  1  6  0  0  0
  4  3  1  0  0  0  0
  4  5  1  1  0  0  0
  5  6  1  0  0  0  0
  6  7  2  0  0  0  0
  6  8  1  0  0  0  0
  4  9  1  0  0  0  0
  9 10  1  6  0  0  0
  9 11  1  0  0  0  0
 11 12  1  1  0  0  0
 12 13  1  0  0  0  0
 13 14  2  0  0  0  0
 14 15  1  0  0  0  0
 15 16  2  0  0  0  0
 16 17  1  0  0  0  0
 17 18  2  0  0  0  0
 18 19  1  0  0  0  0
 19 20  1  0  0  0  0
 20 21  2  0  0  0  0
 20 22  1  0  0  0  0
 22 23  2  0  0  0  0
 23 24  1  0  0  0  0
 24 25  2  0  0  0  0
 25 26  1  0  0  0  0
 25 27  1  0  0  0  0
 27 28  1  0  0  0  0
 28 29  1  0  0  0  0
 29 30  2  0  0  0  0
 30 31  1  0  0  0  0
 30 32  1  0  0  0  0
 27 33  2  0  0  0  0
 22 33  1  0  0  0  0
 18 34  1  0  0  0  0
 34 35  2  0  0  0  0
 34 36  1  0  0  0  0
 36 37  1  0  0  0  0
 16 37  1  0  0  0  0
 37 38  2  0  0  0  0
 13 38  1  0  0  0  0
 38 39  1  0  0  0  0
 17 40  1  0  0  0  0
 11 41  1  0  0  0  0
 41 42  1  0  0  0  0
  3 42  1  0  0  0  0
 42 43  1  0  0  0  0
 42 44  1  0  0  0  0
M  END
> <From> 
www.bindingDB.org

> <BindingDB Reactant_set_id>
50254215

> <Ligand InChI>
InChI=1S/C31H36N2O11/c1-14(2)7-8-16-13-17(9-11-19(16)34)27(37)33-21-22(35)18-10-12-20(15(3)24(18)42-28(21)38)41-29-23(36)25(43-30(32)39)26(40-6)31(4,5)44-29/h7,9-13,23,25-26,29,34-36H,8H2,1-6H3,(H2,32,39)(H,33,37)/t23-,25-,26+,29-/m0/s1

> <Ligand InChI Key>
YJQPYGGHQPGBLI-FWPHEPGVSA-N

> <BindingDB MonomerID>
50423645

> <BindingDB Ligand Name>
Albamycin::Cathomycin::NOVOBIOCIN

> <Target Name Assigned by Curator or DataSource>
DNA gyrase subunit B

> <Target Source Organism According to Curator or DataSource>


> <Ki (nM)>


> <IC50 (nM)>
 180

> <Kd (nM)>


> <EC50 (nM)>


> <kon (M-1-s-1)>


> <koff (s-1)>


> <pH>


> <Temp C>


> <Curation/DataSource>
ChEMBL

> <Article DOI>
10.1016/j.bmc.2014.10.016

> <PMID>
25456076

> <PubChem AID>


> <Patent Number>


> <Authors>
Reddy, KI; Srihari, K; Renuka, J; Sree, KS; Chuppala, A; Jeankumar, VU; Sridevi, JP; Babu, KS; Yogeeswari, P; Sriram, D

> <Institution>
TBA

> <Link to Ligand in BindingDB>
http://www.bindingdb.org/bind/chemsearch/marvin/MolStructure.jsp?monomerid=50423645

> <Link to Ligand-Target Pair in BindingDB>
http://www.bindingdb.org/jsp/dbsearch/PrimarySearch_ki.jsp?energyterm=kJ/mole&tag=pol&polymerid=50006452&target=DNA+gyrase+subunit+B&column=ki&startPg=0&Increment=50&submit=Search

> <Link to Ligand-Target Pair in BindingDB>
http://www.bindingdb.org/jsp/dbsearch/PrimarySearch_ki.jsp?energyterm=kJ/mole&tag=r21&monomerid=50423645&enzyme=DNA+gyrase+subunit+B&column=ki&startPg=0&Increment=50&submit=Search

> <Ligand HET ID in PDB>


> <PDB ID(s) for Ligand-Target Complex>


> <PubChem CID>
71719647

> <PubChem SID>
164152520

> <ChEBI ID of Ligand>


> <ChEMBL ID of Ligand>


> <DrugBank ID of Ligand>


> <IUPHAR_GRAC ID of Ligand>


> <KEGG ID of Ligand>


> <ZINC ID of Ligand>
ZINC76945632

> <Number of Protein Chains in Target (>1 implies a multichain complex)>
1

> <BindingDB Target Chain Sequence>
MAAQKNNAPKEYGADSITILEGLEAVRKRPGMYIGSTGERGLHHLIWEVVDNAVDEAMAGFATRVDVKIHADGSVEVRDDGRGIPVEMHATGMPTIDVVMTQLHAGGKFDGETYAVSGGLHGVGVSVVNALSTRLEATVLRDGYEWFQYYDRSVPGKLKQGGETKETGTTIRFWADPEIFETTDYNFETVARRLQEMAFLNKGLTIELTDERVTAEEVVDDVVKDTAEAPKTADEKAAEATGPSKVKHRVFHYPGGLVDYVKHINRTKTPIQQSIIDFDGKGPGHEVEIAMQWNAGYSESVHTFANTINTHEGGTHEEGFRAALTSVVNRYAKDKKLLKDKDPNLTGDDIREGLAAVISVKVAEPQFEGQTKTKLGNTEVKSFVQKICNEQLQHWFEANPAEAKTVVNKAVSSAQARIAARKARELVRRKSATDIGGLPGKLADCRSTDPSKSELYVVEGDSAGGSAKSGRDSMFQAILPLRGKIINVEKARIDRVLKNTEVQSIITALGTGIHDEFDISKLRYHKIVLMADADVDGQHISTLLLTLLFRFMKPLVENGHIFLAQPPLYKLKWQRSEPEFAYSDRERDGLLEAGRAAGKKINVDDGIQRYKGLGEMDAKELWETTMDPSVRVLRQVTLDDAAAADELFSILMGEDVEARRSFITRNAKDVRFLDV

> <PDB ID(s) of Target Chain>
4BAE

> <UniProt (SwissProt) Recommended Name of Target Chain>
DNA gyrase subunit B

> <UniProt (SwissProt) Entry Name of Target Chain>
GYRB_MYCSM

> <UniProt (SwissProt) Primary ID of Target Chain>
P0C559

> <UniProt (SwissProt) Secondary ID(s) of Target Chain>
P48355,Q59555

> <UniProt (SwissProt) Alternative ID(s) of Target Chain>


> <UniProt (TrEMBL) Submitted Name of Target Chain>


> <UniProt (TrEMBL) Entry Name of Target Chain>


> <UniProt (TrEMBL) Primary ID of Target Chain>


> <UniProt (TrEMBL) Secondary ID(s) of Target Chain>


> <UniProt (TrEMBL) Alternative ID(s) of Target Chain>


$$$$
 
  Mrv0541 11221409182D          

 44 47  0  0  0  0            999 V2000
   -0.2473    0.9000    0.0000 C   0  0  0  0  0  0  0  0  0  0  0  0
   -0.2484    0.0727    0.0000 C   0  0  0  0  0  0  0  0  0  0  0  0
    0.4664   -0.3402    0.0000 C   0  0  0  0  0  0  0  0  0  0  0  0
    0.4646    1.3128    0.0000 C   0  0  0  0  0  0  0  0  0  0  0  0
    1.1800    0.9037    0.0000 C   0  0  0  0  0  0  0  0  0  0  0  0
    1.1788    0.0752    0.0000 C   0  0  0  0  0  0  0  0  0  0  0  0
    1.8918   -0.3378    0.0000 C   0  0  0  0  0  0  0  0  0  0  0  0
    2.6104    0.0732    0.0000 C   0  0  0  0  0  0  0  0  0  0  0  0
    2.6116    0.9017    0.0000 C   0  0  0  0  0  0  0  0  0  0  0  0
    1.8941    1.3192    0.0000 O   0  0  0  0  0  0  0  0  0  0  0  0
    3.3271    1.3124    0.0000 O   0  0  0  0  0  0  0  0  0  0  0  0
    3.3237   -0.3413    0.0000 N   0  0  0  0  0  0  0  0  0  0  0  0
    4.0394    0.0692    0.0000 C   0  0  0  0  0  0  0  0  0  0  0  0
    4.7527   -0.3453    0.0000 C   0  0  0  0  0  0  0  0  0  0  0  0
    4.0417    0.8942    0.0000 O   0  0  0  0  0  0  0  0  0  0  0  0
    4.7449   -1.1677    0.0000 C   0  0  0  0  0  0  0  0  0  0  0  0
    5.4574   -1.5821    0.0000 C   0  0  0  0  0  0  0  0  0  0  0  0
    6.1740   -1.1716    0.0000 C   0  0  0  0  0  0  0  0  0  0  0  0
    6.1737   -0.3423    0.0000 C   0  0  0  0  0  0  0  0  0  0  0  0
    5.4606    0.0684    0.0000 C   0  0  0  0  0  0  0  0  0  0  0  0
    6.8879   -1.5851    0.0000 O   0  0  0  0  0  0  0  0  0  0  0  0
    5.4547   -2.4071    0.0000 C   0  0  0  0  0  0  0  0  0  0  0  0
    6.1678   -2.8220    0.0000 C   0  0  0  0  0  0  0  0  0  0  0  0
    6.1651   -3.6470    0.0000 C   0  0  0  0  0  0  0  0  0  0  0  0
    5.4493   -4.0571    0.0000 C   0  0  0  0  0  0  0  0  0  0  0  0
    6.8782   -4.0618    0.0000 C   0  0  0  0  0  0  0  0  0  0  0  0
    1.8894   -1.1628    0.0000 O   0  0  0  0  0  0  0  0  0  0  0  0
   -0.9618    1.3124    0.0000 O   0  0  0  0  0  0  0  0  0  0  0  0
   -1.6762    0.8997    0.0000 C   0  0  2  0  0  0  0  0  0  0  0  0
   -2.3887    1.3169    0.0000 O   0  0  0  0  0  0  0  0  0  0  0  0
   -3.1009    0.9077    0.0000 C   0  0  0  0  0  0  0  0  0  0  0  0
   -3.1050    0.0824    0.0000 C   0  0  1  0  0  0  0  0  0  0  0  0
   -2.3906   -0.3322    0.0000 C   0  0  2  0  0  0  0  0  0  0  0  0
   -1.6721    0.0786    0.0000 C   0  0  1  0  0  0  0  0  0  0  0  0
   -0.9575   -0.3336    0.0000 O   0  0  0  0  0  0  0  0  0  0  0  0
   -2.3932   -1.1572    0.0000 O   0  0  0  0  0  0  0  0  0  0  0  0
   -3.8209   -0.3276    0.0000 O   0  0  0  0  0  0  0  0  0  0  0  0
   -4.5339    0.0874    0.0000 C   0  0  0  0  0  0  0  0  0  0  0  0
   -3.3208    1.7083    0.0000 C   0  0  0  0  0  0  0  0  0  0  0  0
   -3.9042    0.6958    0.0000 C   0  0  0  0  0  0  0  0  0  0  0  0
   -3.1090   -1.5674    0.0000 C   0  0  0  0  0  0  0  0  0  0  0  0
   -3.1116   -2.3924    0.0000 N   0  0  0  0  0  0  0  0  0  0  0  0
   -3.8221   -1.1526    0.0000 O   0  0  0  0  0  0  0  0  0  0  0  0
    0.4621    2.1378    0.0000 C   0  0  0  0  0  0  0  0  0  0  0  0
 18 21  1  0  0  0  0
  9 10  1  0  0  0  0
 17 22  1  0  0  0  0
  5  6  1  0  0  0  0
 22 23  1  0  0  0  0
  9 11  2  0  0  0  0
 23 24  2  0  0  0  0
 24 25  1  0  0  0  0
  8 12  1  0  0  0  0
 24 26  1  0  0  0  0
  2  3  1  0  0  0  0
  7 27  1  0  0  0  0
 12 13  1  0  0  0  0
  1 28  1  0  0  0  0
  3  6  2  0  0  0  0
 29 28  1  1  0  0  0
 29 30  1  0  0  0  0
 13 14  1  0  0  0  0
  1  2  2  0  0  0  0
 13 15  2  0  0  0  0
  5  4  2  0  0  0  0
 14 16  2  0  0  0  0
 34 29  1  0  0  0  0
 30 31  1  0  0  0  0
 32 31  1  0  0  0  0
 33 32  1  0  0  0  0
 33 34  1  0  0  0  0
  4  1  1  0  0  0  0
 34 35  1  6  0  0  0
 16 17  1  0  0  0  0
 33 36  1  6  0  0  0
  5 10  1  0  0  0  0
 32 37  1  1  0  0  0
 17 18  2  0  0  0  0
 37 38  1  0  0  0  0
  6  7  1  0  0  0  0
 31 39  1  0  0  0  0
 18 19  1  0  0  0  0
 31 40  1  0  0  0  0
  7  8  2  0  0  0  0
 36 41  1  0  0  0  0
 19 20  2  0  0  0  0
 41 42  1  0  0  0  0
 20 14  1  0  0  0  0
 41 43  2  0  0  0  0
  8  9  1  0  0  0  0
  4 44  1  0  0  0  0
M  END
> <From> 
www.bindingDB.org

> <BindingDB Reactant_set_id>
50369848

> <Ligand InChI>
InChI=1S/C31H36N2O11/c1-14(2)7-8-16-13-17(9-11-19(16)34)27(37)33-21-22(35)18-10-12-20(15(3)24(18)42-28(21)38)41-29-23(36)25(43-30(32)39)26(40-6)31(4,5)44-29/h7,9-13,23,25-26,29,34-36H,8H2,1-6H3,(H2,32,39)(H,33,37)/t23-,25+,26-,29-/m1/s1

> <Ligand InChI Key>
YJQPYGGHQPGBLI-KGSXXDOSSA-N

> <BindingDB MonomerID>
50226181

> <BindingDB Ligand Name>
(3R,4S,5R,6R)-5-hydroxy-6-(4-hydroxy-3-(4-hydroxy-3-(3-methylbut-2-enyl)benzamido)-2-oxo-2H-chromen-7-yloxy)-3-methoxy-2,2-dimethyl-tetrahydro-2H-pyran-4-yl carbamate::(3R,4S,5R,6R)-5-hydroxy-6-(4-hydroxy-3-(4-hydroxy-3-(3-methylbut-2-enyl)benzamido)-8-methyl-2-oxo-2H-chromen-7-yloxy)-3-methoxy-2,2-dimethyl-tetrahydro-2H-pyran-4-yl carbamate::CHEMBL36506::Carbamic acid (3R,4S,5R,6R)-5-hydroxy-6-{4-hydroxy-3-[4-hydroxy-3-(3-methyl-but-2-enyl)-benzoylamino]-8-methyl-2-oxo-2H-chromen-7-yloxy}-3-methoxy-2,2-dimethyl-tetrahydro-pyran-4-yl ester::Carbamic acid (3R,4S,5R,6R)-5-hydroxy-6-{4-hydroxy-3-[4-hydroxy-3-(4-methyl-pent-3-enyl)-benzoylamino]-8-methyl-2-oxo-2H-chromen-7-yloxy}-3-methoxy-2,2-dimethyl-tetrahydro-pyran-4-yl ester::Carbamic acid 5-hydroxy-6-{4-hydroxy-3-[4-hydroxy-3-(3-methyl-but-2-enyl)-benzoylamino]-8-methyl-2-oxo-2H-chromen-7-yloxy}-3-methoxy-2,2-dimethyl-tetrahydro-pyran-4-yl ester::Carbamic acid 5-hydroxy-6-{4-hydroxy-3-[4-hydroxy-3-(3-methyl-but-2-enyl)-benzoylamino]-8-methyl-2-oxo-2H-chromen-7-yloxy}-3-methoxy-2,2-dimethyl-tetrahydro-pyran-4-yl ester(Novobiocin)::NOVOBIOCIN

> <Target Name Assigned by Curator or DataSource>
DNA gyrase subunit B

> <Target Source Organism According to Curator or DataSource>


> <Ki (nM)>


> <IC50 (nM)>
 180

> <Kd (nM)>


> <EC50 (nM)>


> <kon (M-1-s-1)>


> <koff (s-1)>


> <pH>


> <Temp C>


> <Curation/DataSource>
ChEMBL

> <Article DOI>
10.1016/j.bmc.2014.06.041

> <PMID>
25129171

> <PubChem AID>


> <Patent Number>


> <Authors>
Renuka, J; Reddy, KI; Srihari, K; Jeankumar, VU; Shravan, M; Sridevi, JP; Yogeeswari, P; Babu, KS; Sriram, D

> <Institution>
Institute of Technology&amp; Science-Pilani

> <Link to Ligand in BindingDB>
http://www.bindingdb.org/bind/chemsearch/marvin/MolStructure.jsp?monomerid=50226181

> <Link to Ligand-Target Pair in BindingDB>
http://www.bindingdb.org/jsp/dbsearch/PrimarySearch_ki.jsp?energyterm=kJ/mole&tag=pol&polymerid=50006452&target=DNA+gyrase+subunit+B&column=ki&startPg=0&Increment=50&submit=Search

> <Link to Ligand-Target Pair in BindingDB>
http://www.bindingdb.org/jsp/dbsearch/PrimarySearch_ki.jsp?energyterm=kJ/mole&tag=r21&monomerid=50226181&enzyme=DNA+gyrase+subunit+B&column=ki&startPg=0&Increment=50&submit=Search

> <Ligand HET ID in PDB>
NOV

> <PDB ID(s) for Ligand-Target Complex>
1AJ6,1KIJ,1S14,3LPS,4URN,4URO

> <PubChem CID>
54675769

> <PubChem SID>
104097057

> <ChEBI ID of Ligand>
28368

> <ChEMBL ID of Ligand>
CHEMBL36506

> <DrugBank ID of Ligand>
DB01051

> <IUPHAR_GRAC ID of Ligand>


> <KEGG ID of Ligand>
C05080

> <ZINC ID of Ligand>
ZINC14879999

> <Number of Protein Chains in Target (>1 implies a multichain complex)>
1

> <BindingDB Target Chain Sequence>
MAAQKNNAPKEYGADSITILEGLEAVRKRPGMYIGSTGERGLHHLIWEVVDNAVDEAMAGFATRVDVKIHADGSVEVRDDGRGIPVEMHATGMPTIDVVMTQLHAGGKFDGETYAVSGGLHGVGVSVVNALSTRLEATVLRDGYEWFQYYDRSVPGKLKQGGETKETGTTIRFWADPEIFETTDYNFETVARRLQEMAFLNKGLTIELTDERVTAEEVVDDVVKDTAEAPKTADEKAAEATGPSKVKHRVFHYPGGLVDYVKHINRTKTPIQQSIIDFDGKGPGHEVEIAMQWNAGYSESVHTFANTINTHEGGTHEEGFRAALTSVVNRYAKDKKLLKDKDPNLTGDDIREGLAAVISVKVAEPQFEGQTKTKLGNTEVKSFVQKICNEQLQHWFEANPAEAKTVVNKAVSSAQARIAARKARELVRRKSATDIGGLPGKLADCRSTDPSKSELYVVEGDSAGGSAKSGRDSMFQAILPLRGKIINVEKARIDRVLKNTEVQSIITALGTGIHDEFDISKLRYHKIVLMADADVDGQHISTLLLTLLFRFMKPLVENGHIFLAQPPLYKLKWQRSEPEFAYSDRERDGLLEAGRAAGKKINVDDGIQRYKGLGEMDAKELWETTMDPSVRVLRQVTLDDAAAADELFSILMGEDVEARRSFITRNAKDVRFLDV

> <PDB ID(s) of Target Chain>
4BAE

> <UniProt (SwissProt) Recommended Name of Target Chain>
DNA gyrase subunit B

> <UniProt (SwissProt) Entry Name of Target Chain>
GYRB_MYCSM

> <UniProt (SwissProt) Primary ID of Target Chain>
P0C559

> <UniProt (SwissProt) Secondary ID(s) of Target Chain>
P48355,Q59555

> <UniProt (SwissProt) Alternative ID(s) of Target Chain>


> <UniProt (TrEMBL) Submitted Name of Target Chain>


> <UniProt (TrEMBL) Entry Name of Target Chain>


> <UniProt (TrEMBL) Primary ID of Target Chain>


> <UniProt (TrEMBL) Secondary ID(s) of Target Chain>


> <UniProt (TrEMBL) Alternative ID(s) of Target Chain>


$$$$
        Novobiocin
  Mrv0541 11181421252D          

 44 47  0  0  0  0            999 V2000
   -2.5625    2.5438    0.0000 C   0  0  0  0  0  0  0  0  0  0  0  0
   -3.2770    2.1313    0.0000 C   0  0  0  0  0  0  0  0  0  0  0  0
   -3.2770    1.3062    0.0000 C   0  0  0  0  0  0  0  0  0  0  0  0
   -2.5625    0.8937    0.0000 C   0  0  0  0  0  0  0  0  0  0  0  0
   -1.8480    1.3062    0.0000 C   0  0  0  0  0  0  0  0  0  0  0  0
   -1.8480    2.1313    0.0000 C   0  0  0  0  0  0  0  0  0  0  0  0
   -2.5625    3.3688    0.0000 C   0  0  0  0  0  0  0  0  0  0  0  0
   -3.2770    3.7813    0.0000 C   0  0  0  0  0  0  0  0  0  0  0  0
   -3.2770    4.6063    0.0000 C   0  0  0  0  0  0  0  0  0  0  0  0
   -3.9914    5.0188    0.0000 C   0  0  0  0  0  0  0  0  0  0  0  0
   -2.5625    5.0188    0.0000 C   0  0  0  0  0  0  0  0  0  0  0  0
   -3.9914    2.5438    0.0000 O   0  0  0  0  0  0  0  0  0  0  0  0
   -1.1336    0.8937    0.0000 C   0  0  0  0  0  0  0  0  0  0  0  0
   -1.1336    0.0687    0.0000 O   0  0  0  0  0  0  0  0  0  0  0  0
   -0.4191    1.3062    0.0000 N   0  0  0  0  0  0  0  0  0  0  0  0
    0.2954    0.8938    0.0000 C   0  0  0  0  0  0  0  0  0  0  0  0
    1.0098    1.3063    0.0000 C   0  0  0  0  0  0  0  0  0  0  0  0
    0.2954    0.0687    0.0000 C   0  0  0  0  0  0  0  0  0  0  0  0
   -0.4191   -0.3438    0.0000 O   0  0  0  0  0  0  0  0  0  0  0  0
    1.0098    2.1313    0.0000 O   0  0  0  0  0  0  0  0  0  0  0  0
    1.0098   -0.3438    0.0000 O   0  0  0  0  0  0  0  0  0  0  0  0
    1.7243    0.8938    0.0000 C   0  0  0  0  0  0  0  0  0  0  0  0
    1.7243    0.0687    0.0000 C   0  0  0  0  0  0  0  0  0  0  0  0
    2.4388    1.3063    0.0000 C   0  0  0  0  0  0  0  0  0  0  0  0
    2.4388   -0.3438    0.0000 C   0  0  0  0  0  0  0  0  0  0  0  0
    3.1532    0.0687    0.0000 C   0  0  0  0  0  0  0  0  0  0  0  0
    3.1532    0.8938    0.0000 C   0  0  0  0  0  0  0  0  0  0  0  0
    2.4388   -1.1688    0.0000 C   0  0  0  0  0  0  0  0  0  0  0  0
    3.8677   -0.3438    0.0000 O   0  0  0  0  0  0  0  0  0  0  0  0
    4.5822    0.0687    0.0000 C   0  0  1  0  0  0  0  0  0  0  0  0
    5.2967   -0.3438    0.0000 C   0  0  1  0  0  0  0  0  0  0  0  0
    6.0111    0.0687    0.0000 C   0  0  1  0  0  0  0  0  0  0  0  0
    4.5822    0.8938    0.0000 O   0  0  0  0  0  0  0  0  0  0  0  0
    4.8842    2.0207    0.0000 C   0  0  0  0  0  0  0  0  0  0  0  0
    5.2967    1.3063    0.0000 C   0  0  0  0  0  0  0  0  0  0  0  0
    5.7092    2.0207    0.0000 C   0  0  0  0  0  0  0  0  0  0  0  0
    6.0111    0.8938    0.0000 C   0  0  2  0  0  0  0  0  0  0  0  0
    6.7256    1.3063    0.0000 O   0  0  0  0  0  0  0  0  0  0  0  0
    6.7256    2.1313    0.0000 C   0  0  0  0  0  0  0  0  0  0  0  0
    5.2967   -1.1688    0.0000 O   0  0  0  0  0  0  0  0  0  0  0  0
    6.7256   -0.3438    0.0000 O   0  0  0  0  0  0  0  0  0  0  0  0
    7.4401    0.0687    0.0000 C   0  0  0  0  0  0  0  0  0  0  0  0
    7.4401    0.8937    0.0000 O   0  0  0  0  0  0  0  0  0  0  0  0
    8.1545   -0.3438    0.0000 N   0  0  0  0  0  0  0  0  0  0  0  0
  1  2  2  0  0  0  0
  1  6  1  0  0  0  0
  2  3  1  0  0  0  0
  3  4  2  0  0  0  0
  4  5  1  0  0  0  0
  5  6  2  0  0  0  0
  1  7  1  0  0  0  0
  7  8  1  0  0  0  0
  8  9  2  0  0  0  0
  9 10  1  0  0  0  0
  9 11  1  0  0  0  0
  2 12  1  0  0  0  0
  5 13  1  0  0  0  0
 13 15  1  0  0  0  0
 13 14  2  0  0  0  0
 15 16  1  0  0  0  0
 17 16  2  0  0  0  0
 16 18  1  0  0  0  0
 17 22  1  0  0  0  0
 18 21  1  0  0  0  0
 21 23  1  0  0  0  0
 18 19  2  0  0  0  0
 17 20  1  0  0  0  0
 24 22  2  0  0  0  0
 23 22  1  0  0  0  0
 23 25  2  0  0  0  0
 24 27  1  0  0  0  0
 25 26  1  0  0  0  0
 26 27  2  0  0  0  0
 25 28  1  0  0  0  0
 26 29  1  0  0  0  0
 30 29  1  6  0  0  0
 30 33  1  0  0  0  0
 31 30  1  0  0  0  0
 35 33  1  0  0  0  0
 37 35  1  0  0  0  0
 31 32  1  0  0  0  0
 32 37  1  0  0  0  0
 35 34  1  0  0  0  0
 35 36  1  0  0  0  0
 37 38  1  6  0  0  0
 38 39  1  0  0  0  0
 32 41  1  1  0  0  0
 31 40  1  1  0  0  0
 41 42  1  0  0  0  0
 42 44  1  0  0  0  0
 42 43  2  0  0  0  0
M  END
> <From> 
www.bindingDB.org

> <BindingDB Reactant_set_id>
50303831

> <Ligand InChI>
InChI=1S/C31H36N2O11/c1-14(2)7-8-16-13-17(9-11-19(16)34)27(37)33-21-22(35)18-10-12-20(15(3)24(18)42-28(21)38)41-29-23(36)25(43-30(32)39)26(40-6)31(4,5)44-29/h7,9-13,23,25-26,29,34-36H,8H2,1-6H3,(H2,32,39)(H,33,37)/t23-,25+,26-,29-/m1/s1

> <Ligand InChI Key>
YJQPYGGHQPGBLI-KGSXXDOSSA-N

> <BindingDB MonomerID>
282

> <BindingDB Ligand Name>
(3R,4S,5R,6R)-5-hydroxy-6-[(2-hydroxy-3-{[4-hydroxy-3-(3-methylbut-2-en-1-yl)benzene]amido}-8-methyl-4-oxo-4H-chromen-7-yl)oxy]-3-methoxy-2,2-dimethyloxan-4-yl carbamate::Coumarin-Based, DNA Gyrase Inhibitor::Novobiocin

> <Target Name Assigned by Curator or DataSource>
DNA gyrase subunit B

> <Target Source Organism According to Curator or DataSource>


> <Ki (nM)>


> <IC50 (nM)>
 180

> <Kd (nM)>


> <EC50 (nM)>


> <kon (M-1-s-1)>


> <koff (s-1)>


> <pH>


> <Temp C>


> <Curation/DataSource>
ChEMBL

> <Article DOI>
10.1016/j.bmc.2015.03.004

> <PMID>
25801151

> <PubChem AID>


> <Patent Number>


> <Authors>
Medapi, B; Renuka, J; Saxena, S; Sridevi, JP; Medishetti, R; Kulkarni, P; Yogeeswari, P; Sriram, D

> <Institution>
Birla Institute of Technology&amp; Science-Pilani

> <Link to Ligand in BindingDB>
http://www.bindingdb.org/bind/chemsearch/marvin/MolStructure.jsp?monomerid=282

> <Link to Ligand-Target Pair in BindingDB>
http://www.bindingdb.org/jsp/dbsearch/PrimarySearch_ki.jsp?energyterm=kJ/mole&tag=pol&polymerid=50006452&target=DNA+gyrase+subunit+B&column=ki&startPg=0&Increment=50&submit=Search

> <Link to Ligand-Target Pair in BindingDB>
http://www.bindingdb.org/jsp/dbsearch/PrimarySearch_ki.jsp?energyterm=kJ/mole&tag=r21&monomerid=282&enzyme=DNA+gyrase+subunit+B&column=ki&startPg=0&Increment=50&submit=Search

> <Ligand HET ID in PDB>
NOV

> <PDB ID(s) for Ligand-Target Complex>
1AJ6,1KIJ,1S14,3LPS,4URN,4URO

> <PubChem CID>
54675769

> <PubChem SID>
11108089

> <ChEBI ID of Ligand>
28368

> <ChEMBL ID of Ligand>


> <DrugBank ID of Ligand>
DB01051

> <IUPHAR_GRAC ID of Ligand>


> <KEGG ID of Ligand>
C05080

> <ZINC ID of Ligand>
ZINC14879999

> <Number of Protein Chains in Target (>1 implies a multichain complex)>
1

> <BindingDB Target Chain Sequence>
MAAQKNNAPKEYGADSITILEGLEAVRKRPGMYIGSTGERGLHHLIWEVVDNAVDEAMAGFATRVDVKIHADGSVEVRDDGRGIPVEMHATGMPTIDVVMTQLHAGGKFDGETYAVSGGLHGVGVSVVNALSTRLEATVLRDGYEWFQYYDRSVPGKLKQGGETKETGTTIRFWADPEIFETTDYNFETVARRLQEMAFLNKGLTIELTDERVTAEEVVDDVVKDTAEAPKTADEKAAEATGPSKVKHRVFHYPGGLVDYVKHINRTKTPIQQSIIDFDGKGPGHEVEIAMQWNAGYSESVHTFANTINTHEGGTHEEGFRAALTSVVNRYAKDKKLLKDKDPNLTGDDIREGLAAVISVKVAEPQFEGQTKTKLGNTEVKSFVQKICNEQLQHWFEANPAEAKTVVNKAVSSAQARIAARKARELVRRKSATDIGGLPGKLADCRSTDPSKSELYVVEGDSAGGSAKSGRDSMFQAILPLRGKIINVEKARIDRVLKNTEVQSIITALGTGIHDEFDISKLRYHKIVLMADADVDGQHISTLLLTLLFRFMKPLVENGHIFLAQPPLYKLKWQRSEPEFAYSDRERDGLLEAGRAAGKKINVDDGIQRYKGLGEMDAKELWETTMDPSVRVLRQVTLDDAAAADELFSILMGEDVEARRSFITRNAKDVRFLDV

> <PDB ID(s) of Target Chain>
4BAE

> <UniProt (SwissProt) Recommended Name of Target Chain>
DNA gyrase subunit B

> <UniProt (SwissProt) Entry Name of Target Chain>
GYRB_MYCSM

> <UniProt (SwissProt) Primary ID of Target Chain>
P0C559

> <UniProt (SwissProt) Secondary ID(s) of Target Chain>
P48355,Q59555

> <UniProt (SwissProt) Alternative ID(s) of Target Chain>


> <UniProt (TrEMBL) Submitted Name of Target Chain>


> <UniProt (TrEMBL) Entry Name of Target Chain>


> <UniProt (TrEMBL) Primary ID of Target Chain>


> <UniProt (TrEMBL) Secondary ID(s) of Target Chain>


> <UniProt (TrEMBL) Alternative ID(s) of Target Chain>


$$$$

  Mrv0541 11231413392D          

 45 49  0  0  0  0            999 V2000
   -0.2210   -6.0954    0.0000 C   0  0  0  0  0  0  0  0  0  0  0  0
   -0.9470   -5.6939    0.0000 C   0  0  1  0  0  0  0  0  0  0  0  0
   -1.6537   -6.1194    0.0000 C   0  0  2  0  0  0  0  0  0  0  0  0
   -1.6409   -6.9482    0.0000 C   0  0  2  0  0  0  0  0  0  0  0  0
   -0.9149   -7.3498    0.0000 C   0  0  1  0  0  0  0  0  0  0  0  0
   -0.2018   -6.9225    0.0000 O   0  0  0  0  0  0  0  0  0  0  0  0
   -0.9006   -8.1747    0.0000 O   0  0  0  0  0  0  0  0  0  0  0  0
   -0.1808   -8.5860    0.0000 C   0  0  0  0  0  0  0  0  0  0  0  0
   -0.1816   -9.4104    0.0000 C   0  0  0  0  0  0  0  0  0  0  0  0
    0.5340   -8.1717    0.0000 C   0  0  0  0  0  0  0  0  0  0  0  0
    1.2485   -8.5894    0.0000 C   0  0  0  0  0  0  0  0  0  0  0  0
    1.2466   -9.4140    0.0000 C   0  0  0  0  0  0  0  0  0  0  0  0
    0.5314   -9.8257    0.0000 C   0  0  0  0  0  0  0  0  0  0  0  0
    0.5302  -10.6463    0.0000 O   0  0  0  0  0  0  0  0  0  0  0  0
    1.2425  -11.0616    0.0000 C   0  0  0  0  0  0  0  0  0  0  0  0
    1.9578  -10.6501    0.0000 C   0  0  0  0  0  0  0  0  0  0  0  0
    1.9607   -9.8232    0.0000 C   0  0  0  0  0  0  0  0  0  0  0  0
    2.6752   -9.4107    0.0000 O   0  0  0  0  0  0  0  0  0  0  0  0
    1.2401  -11.8866    0.0000 O   0  0  0  0  0  0  0  0  0  0  0  0
    2.6712  -11.0644    0.0000 N   0  0  0  0  0  0  0  0  0  0  0  0
    2.6691  -11.8893    0.0000 C   0  0  0  0  0  0  0  0  0  0  0  0
    1.9537  -12.3001    0.0000 O   0  0  0  0  0  0  0  0  0  0  0  0
    3.3826  -12.3036    0.0000 C   0  0  0  0  0  0  0  0  0  0  0  0
    3.3776  -13.1278    0.0000 C   0  0  0  0  0  0  0  0  0  0  0  0
    4.0902  -13.5420    0.0000 C   0  0  0  0  0  0  0  0  0  0  0  0
    4.8067  -13.1312    0.0000 C   0  0  0  0  0  0  0  0  0  0  0  0
    4.8062  -12.3020    0.0000 C   0  0  0  0  0  0  0  0  0  0  0  0
    4.0930  -11.8915    0.0000 C   0  0  0  0  0  0  0  0  0  0  0  0
    5.5207  -13.5446    0.0000 O   0  0  0  0  0  0  0  0  0  0  0  0
    0.6065   -6.0765    0.0000 C   0  0  0  0  0  0  0  0  0  0  0  0
   -0.2319   -5.2723    0.0000 C   0  0  0  0  0  0  0  0  0  0  0  0
   -0.9621   -4.8690    0.0000 O   0  0  0  0  0  0  0  0  0  0  0  0
   -0.2553   -4.4434    0.0000 C   0  0  0  0  0  0  0  0  0  0  0  0
   -2.3751   -5.7191    0.0000 O   0  0  0  0  0  0  0  0  0  0  0  0
   -2.3891   -4.8942    0.0000 C   0  0  0  0  0  0  0  0  0  0  0  0
   -3.1101   -4.4936    0.0000 C   0  0  0  0  0  0  0  0  0  0  0  0
   -1.6817   -4.4696    0.0000 O   0  0  0  0  0  0  0  0  0  0  0  0
   -2.3481   -7.3728    0.0000 O   0  0  0  0  0  0  0  0  0  0  0  0
   -3.3459   -3.6999    0.0000 C   0  0  0  0  0  0  0  0  0  0  0  0
   -4.1706   -3.6768    0.0000 C   0  0  0  0  0  0  0  0  0  0  0  0
   -4.4474   -4.4541    0.0000 C   0  0  0  0  0  0  0  0  0  0  0  0
   -3.7938   -4.9574    0.0000 N   0  0  0  0  0  0  0  0  0  0  0  0
   -5.1653   -4.8583    0.0000 C   0  0  0  0  0  0  0  0  0  0  0  0
    5.5202  -11.8888    0.0000 O   0  0  0  0  0  0  0  0  0  0  0  0
    6.2351  -12.3005    0.0000 C   0  0  0  0  0  0  0  0  0  0  0  0
  9 13  2  0  0  0  0
 21 22  2  0  0  0  0
 11 10  1  0  0  0  0
 21 23  1  0  0  0  0
 11 12  2  0  0  0  0
 23 24  2  0  0  0  0
  3  4  1  0  0  0  0
 24 25  1  0  0  0  0
 12 13  1  0  0  0  0
 25 26  2  0  0  0  0
  4  5  1  0  0  0  0
 26 27  1  0  0  0  0
  5  6  1  0  0  0  0
 27 28  2  0  0  0  0
 28 23  1  0  0  0  0
 26 29  1  0  0  0  0
  5  7  1  1  0  0  0
  1 30  1  0  0  0  0
  2  1  1  0  0  0  0
  1 31  1  0  0  0  0
  7  8  1  0  0  0  0
  2 32  1  1  0  0  0
 12 17  1  0  0  0  0
 32 33  1  0  0  0  0
 13 14  1  0  0  0  0
  3 34  1  6  0  0  0
 14 15  1  0  0  0  0
 34 35  1  0  0  0  0
 15 16  1  0  0  0  0
 35 36  1  0  0  0  0
 16 17  2  0  0  0  0
 35 37  2  0  0  0  0
  8  9  1  0  0  0  0
  4 38  1  6  0  0  0
 36 39  2  0  0  0  0
 17 18  1  0  0  0  0
  1  6  1  0  0  0  0
 15 19  2  0  0  0  0
  3  2  1  0  0  0  0
 39 40  1  0  0  0  0
 40 41  2  0  0  0  0
 41 42  1  0  0  0  0
 42 36  1  0  0  0  0
 16 20  1  0  0  0  0
 41 43  1  0  0  0  0
  8 10  2  0  0  0  0
 27 44  1  0  0  0  0
 20 21  1  0  0  0  0
 44 45  1  0  0  0  0
M  END
> <From> 
www.bindingDB.org

> <BindingDB Reactant_set_id>
50607675

> <Ligand InChI>
InChI=1S/C31H32N2O12/c1-14-6-10-18(32-14)28(38)44-25-24(36)30(45-31(2,3)26(25)41-5)42-16-8-9-17-20(13-16)43-29(39)22(23(17)35)33-27(37)15-7-11-19(34)21(12-15)40-4/h6-13,24-26,30,32,34-36H,1-5H3,(H,33,37)/t24-,25+,26-,30-/m1/s1

> <Ligand InChI Key>
JURYCYSCKRZQLD-YYZJCXNBSA-N

> <BindingDB MonomerID>
50330305

> <BindingDB Ligand Name>
(3R,4S,5R,6R)-5-hydroxy-6-(4-hydroxy-3-(4-hydroxy-3-methoxybenzamido)-2-oxo-2H-chromen-7-yloxy)-3-methoxy-2,2-dimethyltetrahydro-2H-pyran-4-yl 5-methyl-1H-pyrrole-2-carboxylate::CHEMBL1275888

> <Target Name Assigned by Curator or DataSource>
DNA Gyrase Subunit B

> <Target Source Organism According to Curator or DataSource>
Escherichia coli

> <Ki (nM)>


> <IC50 (nM)>
 185

> <Kd (nM)>


> <EC50 (nM)>


> <kon (M-1-s-1)>


> <koff (s-1)>


> <pH>


> <Temp C>


> <Curation/DataSource>
ChEMBL

> <Article DOI>
10.1128/AAC.01235-07

> <PMID>
18347114

> <PubChem AID>


> <Patent Number>


> <Authors>
Anderle, C; Stieger, M; Burrell, M; Reinelt, S; Maxwell, A; Page, M; Heide, L

> <Institution>
Universit&#228;t T&#252;bingen

> <Link to Ligand in BindingDB>
http://www.bindingdb.org/bind/chemsearch/marvin/MolStructure.jsp?monomerid=50330305

> <Link to Ligand-Target Pair in BindingDB>
http://www.bindingdb.org/jsp/dbsearch/PrimarySearch_ki.jsp?energyterm=kJ/mole&tag=pol&polymerid=2630&target=DNA+Gyrase+Subunit+B&column=ki&startPg=0&Increment=50&submit=Search

> <Link to Ligand-Target Pair in BindingDB>
http://www.bindingdb.org/jsp/dbsearch/PrimarySearch_ki.jsp?energyterm=kJ/mole&tag=r21&monomerid=50330305&enzyme=DNA+Gyrase+Subunit+B&column=ki&startPg=0&Increment=50&submit=Search

> <Ligand HET ID in PDB>


> <PDB ID(s) for Ligand-Target Complex>


> <PubChem CID>
54697399

> <PubChem SID>
123109420

> <ChEBI ID of Ligand>


> <ChEMBL ID of Ligand>
CHEMBL1275888

> <DrugBank ID of Ligand>


> <IUPHAR_GRAC ID of Ligand>


> <KEGG ID of Ligand>


> <ZINC ID of Ligand>
ZINC64447245

> <Number of Protein Chains in Target (>1 implies a multichain complex)>
1

> <BindingDB Target Chain Sequence>
MSNSYDSSSIKVLKGLDAVRKRPGMYIGDTDDGTGLHHMVFEVVDNAIDEALAGHCKEII
VTIHADNSVSVQDDGRGIPTGIHPEEGVSAAEVIMTVLHAGGKFDDNSYKVSGGLHGVGV
SVVNALSQKLELVIQREGKIHRQIYEHGVPQAPLAVTGETEKTGTMVRFWPSLETFTNVT
EFEYEILAKRLRELSFLNSGVSIRLRDKRDGKEDHFHYEGGIKAFVEYLNKNKTPIHPNI
FYFSTEKDGIGVEVALQWNDGFQENIYCFTNNIPQRDGGTHLAGFRAAMTRTLNAYMDKE
GYSKKAKVSATGDDAREGLIAVVSVKVPDPKFSSQTKDKLVSSEVKSAVEQQMNELLAEY
LLENPTDAKIVVGKIIDAARAREAARRAREMTRRKGALDLAGLPGKLADCQERDPALSEL
YLVEGDSAGGSAKQGRNRKNQAILPLKGKILNVEKARFDKMLSSQEVATLITALGCGIGR
DEYNPDKLRYHSIIIMTDADVDGSHIRTLLLTFFYRQMPEIVERGHVYIAQPPLYKVKKG
KQEQYIKDDEAMDQYQISIALDGATLHTNASAPALAGEALEKLVSEYNATQKMINRMERR
YPKAMLKELIYQPTLTEADLSDEQTVTRWVNALVSELNDKEQHGSQWKFDVHTNAEQNLF
EPIVRVRTHGVDTDYPLDHEFITGGEYRRICTLGEKLRGLLEEDAFIERGERRQPVASFE
QALDWLVKESRRGLSIQRYKGLGEMNPEQLWETTMDPESRRMLRVTVKDAIAADQLFTTL
MGDAVEPRRAFIEENALKAANIDI

> <PDB ID(s) of Target Chain>
1KZN,3G7E,3NUH,4DUH,4HYP,4KFG,4PRV,4PRX,4PU9,4WUB,4WUC,4WUD,4XTJ,4ZVI,5L3J,5MMN,5MMO,5MMP,5Z4H,5Z4O,5Z9B,5Z9E,5Z9F,5Z9L,5Z9M,5Z9N,5Z9Q,6ENG,6F86,6F8J,6F94,6F96

> <UniProt (SwissProt) Recommended Name of Target Chain>
DNA gyrase subunit B

> <UniProt (SwissProt) Entry Name of Target Chain>
GYRB_ECOLI

> <UniProt (SwissProt) Primary ID of Target Chain>
P0AES6

> <UniProt (SwissProt) Secondary ID(s) of Target Chain>
O08438,P06982,Q2M811

> <UniProt (SwissProt) Alternative ID(s) of Target Chain>


> <UniProt (TrEMBL) Submitted Name of Target Chain>


> <UniProt (TrEMBL) Entry Name of Target Chain>


> <UniProt (TrEMBL) Primary ID of Target Chain>


> <UniProt (TrEMBL) Secondary ID(s) of Target Chain>


> <UniProt (TrEMBL) Alternative ID(s) of Target Chain>


$$$$

  Mrv0541 11231413392D          

 45 49  0  0  0  0            999 V2000
    0.0953    2.1682    0.0000 C   0  0  0  0  0  0  0  0  0  0  0  0
   -0.6307    2.5697    0.0000 C   0  0  1  0  0  0  0  0  0  0  0  0
   -1.3374    2.1442    0.0000 C   0  0  2  0  0  0  0  0  0  0  0  0
   -1.3245    1.3154    0.0000 C   0  0  2  0  0  0  0  0  0  0  0  0
   -0.5986    0.9138    0.0000 C   0  0  1  0  0  0  0  0  0  0  0  0
    0.1144    1.3412    0.0000 O   0  0  0  0  0  0  0  0  0  0  0  0
   -0.5843    0.0890    0.0000 O   0  0  0  0  0  0  0  0  0  0  0  0
    0.1354   -0.3223    0.0000 C   0  0  0  0  0  0  0  0  0  0  0  0
    0.1346   -1.1467    0.0000 C   0  0  0  0  0  0  0  0  0  0  0  0
    0.8503    0.0920    0.0000 C   0  0  0  0  0  0  0  0  0  0  0  0
    1.5647   -0.3257    0.0000 C   0  0  0  0  0  0  0  0  0  0  0  0
    1.5628   -1.1503    0.0000 C   0  0  0  0  0  0  0  0  0  0  0  0
    0.8476   -1.5619    0.0000 C   0  0  0  0  0  0  0  0  0  0  0  0
    0.8464   -2.3825    0.0000 O   0  0  0  0  0  0  0  0  0  0  0  0
    1.5587   -2.7978    0.0000 C   0  0  0  0  0  0  0  0  0  0  0  0
    2.2739   -2.3863    0.0000 C   0  0  0  0  0  0  0  0  0  0  0  0
    2.2769   -1.5595    0.0000 C   0  0  0  0  0  0  0  0  0  0  0  0
    2.9913   -1.1470    0.0000 O   0  0  0  0  0  0  0  0  0  0  0  0
    1.5563   -3.6228    0.0000 O   0  0  0  0  0  0  0  0  0  0  0  0
    2.9873   -2.8006    0.0000 N   0  0  0  0  0  0  0  0  0  0  0  0
    2.9852   -3.6255    0.0000 C   0  0  0  0  0  0  0  0  0  0  0  0
    2.2698   -4.0362    0.0000 O   0  0  0  0  0  0  0  0  0  0  0  0
    3.6987   -4.0397    0.0000 C   0  0  0  0  0  0  0  0  0  0  0  0
    3.6937   -4.8639    0.0000 C   0  0  0  0  0  0  0  0  0  0  0  0
    4.4062   -5.2781    0.0000 C   0  0  0  0  0  0  0  0  0  0  0  0
    5.1227   -4.8673    0.0000 C   0  0  0  0  0  0  0  0  0  0  0  0
    5.1221   -4.0381    0.0000 C   0  0  0  0  0  0  0  0  0  0  0  0
    4.4090   -3.6277    0.0000 C   0  0  0  0  0  0  0  0  0  0  0  0
    0.9227    2.1871    0.0000 C   0  0  0  0  0  0  0  0  0  0  0  0
    0.0844    2.9913    0.0000 C   0  0  0  0  0  0  0  0  0  0  0  0
   -0.6458    3.3945    0.0000 O   0  0  0  0  0  0  0  0  0  0  0  0
    0.0609    3.8201    0.0000 C   0  0  0  0  0  0  0  0  0  0  0  0
   -2.0588    2.5445    0.0000 O   0  0  0  0  0  0  0  0  0  0  0  0
   -2.0318    0.8908    0.0000 O   0  0  0  0  0  0  0  0  0  0  0  0
   -0.5807   -1.5576    0.0000 C   0  0  0  0  0  0  0  0  0  0  0  0
   -2.7531    1.2912    0.0000 C   0  0  0  0  0  0  0  0  0  0  0  0
   -3.4617    0.8657    0.0000 C   0  0  0  0  0  0  0  0  0  0  0  0
   -2.7671    2.1160    0.0000 O   0  0  0  0  0  0  0  0  0  0  0  0
   -4.1063    1.3735    0.0000 N   0  0  0  0  0  0  0  0  0  0  0  0
   -4.7919    0.9147    0.0000 C   0  0  0  0  0  0  0  0  0  0  0  0
   -4.5673    0.1208    0.0000 C   0  0  0  0  0  0  0  0  0  0  0  0
   -3.7430    0.0892    0.0000 C   0  0  0  0  0  0  0  0  0  0  0  0
   -5.5088    1.3291    0.0000 C   0  0  0  0  0  0  0  0  0  0  0  0
    5.8362   -3.6250    0.0000 C   0  0  0  0  0  0  0  0  0  0  0  0
    5.8367   -5.2807    0.0000 N   0  0  0  0  0  0  0  0  0  0  0  0
  9 13  2  0  0  0  0
 21 22  2  0  0  0  0
 11 10  1  0  0  0  0
 21 23  1  0  0  0  0
 11 12  2  0  0  0  0
 23 24  2  0  0  0  0
  3  4  1  0  0  0  0
 24 25  1  0  0  0  0
 12 13  1  0  0  0  0
 25 26  2  0  0  0  0
  4  5  1  0  0  0  0
 26 27  1  0  0  0  0
  5  6  1  0  0  0  0
 27 28  2  0  0  0  0
 28 23  1  0  0  0  0
  1 29  1  0  0  0  0
  5  7  1  1  0  0  0
  1 30  1  0  0  0  0
  2  1  1  0  0  0  0
  2 31  1  1  0  0  0
  7  8  1  0  0  0  0
 31 32  1  0  0  0  0
 12 17  1  0  0  0  0
  3 33  1  6  0  0  0
 13 14  1  0  0  0  0
  4 34  1  6  0  0  0
 14 15  1  0  0  0  0
  9 35  1  0  0  0  0
 15 16  1  0  0  0  0
 34 36  1  0  0  0  0
 16 17  2  0  0  0  0
 36 37  1  0  0  0  0
  8  9  1  0  0  0  0
 36 38  2  0  0  0  0
 37 39  1  0  0  0  0
 17 18  1  0  0  0  0
  1  6  1  0  0  0  0
 15 19  2  0  0  0  0
  3  2  1  0  0  0  0
 39 40  1  0  0  0  0
 40 41  2  0  0  0  0
 41 42  1  0  0  0  0
 42 37  2  0  0  0  0
 16 20  1  0  0  0  0
 40 43  1  0  0  0  0
  8 10  2  0  0  0  0
 27 44  1  0  0  0  0
 20 21  1  0  0  0  0
 26 45  1  0  0  0  0
M  END
> <From> 
www.bindingDB.org

> <BindingDB Reactant_set_id>
50607660

> <Ligand InChI>
InChI=1S/C32H35N3O10/c1-14-13-17(8-10-19(14)33)28(38)35-22-23(36)18-9-12-21(16(3)25(18)43-30(22)40)42-31-26(24(37)27(41-6)32(4,5)45-31)44-29(39)20-11-7-15(2)34-20/h7-13,24,26-27,31,34,36-37H,33H2,1-6H3,(H,35,38)/t24-,26+,27+,31+/m0/s1

> <Ligand InChI Key>
PGIHTKXHNIULIK-FWTOBACQSA-N

> <BindingDB MonomerID>
50330294

> <BindingDB Ligand Name>
(2R,3R,4R,5R)-2-(3-(4-amino-3-methylbenzamido)-4-hydroxy-8-methyl-2-oxo-2H-chromen-7-yloxy)-4-hydroxy-5-methoxy-6,6-dimethyltetrahydro-2H-pyran-3-yl 5-methyl-1H-pyrrole-2-carboxylate::CHEMBL1275898

> <Target Name Assigned by Curator or DataSource>
DNA Gyrase Subunit B

> <Target Source Organism According to Curator or DataSource>
Escherichia coli

> <Ki (nM)>


> <IC50 (nM)>
 190

> <Kd (nM)>


> <EC50 (nM)>


> <kon (M-1-s-1)>


> <koff (s-1)>


> <pH>


> <Temp C>


> <Curation/DataSource>
ChEMBL

> <Article DOI>
10.1128/AAC.01235-07

> <PMID>
18347114

> <PubChem AID>


> <Patent Number>


> <Authors>
Anderle, C; Stieger, M; Burrell, M; Reinelt, S; Maxwell, A; Page, M; Heide, L

> <Institution>
Universit&#228;t T&#252;bingen

> <Link to Ligand in BindingDB>
http://www.bindingdb.org/bind/chemsearch/marvin/MolStructure.jsp?monomerid=50330294

> <Link to Ligand-Target Pair in BindingDB>
http://www.bindingdb.org/jsp/dbsearch/PrimarySearch_ki.jsp?energyterm=kJ/mole&tag=pol&polymerid=2630&target=DNA+Gyrase+Subunit+B&column=ki&startPg=0&Increment=50&submit=Search

> <Link to Ligand-Target Pair in BindingDB>
http://www.bindingdb.org/jsp/dbsearch/PrimarySearch_ki.jsp?energyterm=kJ/mole&tag=r21&monomerid=50330294&enzyme=DNA+Gyrase+Subunit+B&column=ki&startPg=0&Increment=50&submit=Search

> <Ligand HET ID in PDB>


> <PDB ID(s) for Ligand-Target Complex>


> <PubChem CID>
54729439

> <PubChem SID>
123109409

> <ChEBI ID of Ligand>


> <ChEMBL ID of Ligand>
CHEMBL1275898

> <DrugBank ID of Ligand>


> <IUPHAR_GRAC ID of Ligand>


> <KEGG ID of Ligand>


> <ZINC ID of Ligand>
ZINC64453652

> <Number of Protein Chains in Target (>1 implies a multichain complex)>
1

> <BindingDB Target Chain Sequence>
MSNSYDSSSIKVLKGLDAVRKRPGMYIGDTDDGTGLHHMVFEVVDNAIDEALAGHCKEII
VTIHADNSVSVQDDGRGIPTGIHPEEGVSAAEVIMTVLHAGGKFDDNSYKVSGGLHGVGV
SVVNALSQKLELVIQREGKIHRQIYEHGVPQAPLAVTGETEKTGTMVRFWPSLETFTNVT
EFEYEILAKRLRELSFLNSGVSIRLRDKRDGKEDHFHYEGGIKAFVEYLNKNKTPIHPNI
FYFSTEKDGIGVEVALQWNDGFQENIYCFTNNIPQRDGGTHLAGFRAAMTRTLNAYMDKE
GYSKKAKVSATGDDAREGLIAVVSVKVPDPKFSSQTKDKLVSSEVKSAVEQQMNELLAEY
LLENPTDAKIVVGKIIDAARAREAARRAREMTRRKGALDLAGLPGKLADCQERDPALSEL
YLVEGDSAGGSAKQGRNRKNQAILPLKGKILNVEKARFDKMLSSQEVATLITALGCGIGR
DEYNPDKLRYHSIIIMTDADVDGSHIRTLLLTFFYRQMPEIVERGHVYIAQPPLYKVKKG
KQEQYIKDDEAMDQYQISIALDGATLHTNASAPALAGEALEKLVSEYNATQKMINRMERR
YPKAMLKELIYQPTLTEADLSDEQTVTRWVNALVSELNDKEQHGSQWKFDVHTNAEQNLF
EPIVRVRTHGVDTDYPLDHEFITGGEYRRICTLGEKLRGLLEEDAFIERGERRQPVASFE
QALDWLVKESRRGLSIQRYKGLGEMNPEQLWETTMDPESRRMLRVTVKDAIAADQLFTTL
MGDAVEPRRAFIEENALKAANIDI

> <PDB ID(s) of Target Chain>
1KZN,3G7E,3NUH,4DUH,4HYP,4KFG,4PRV,4PRX,4PU9,4WUB,4WUC,4WUD,4XTJ,4ZVI,5L3J,5MMN,5MMO,5MMP,5Z4H,5Z4O,5Z9B,5Z9E,5Z9F,5Z9L,5Z9M,5Z9N,5Z9Q,6ENG,6F86,6F8J,6F94,6F96

> <UniProt (SwissProt) Recommended Name of Target Chain>
DNA gyrase subunit B

> <UniProt (SwissProt) Entry Name of Target Chain>
GYRB_ECOLI

> <UniProt (SwissProt) Primary ID of Target Chain>
P0AES6

> <UniProt (SwissProt) Secondary ID(s) of Target Chain>
O08438,P06982,Q2M811

> <UniProt (SwissProt) Alternative ID(s) of Target Chain>


> <UniProt (TrEMBL) Submitted Name of Target Chain>


> <UniProt (TrEMBL) Entry Name of Target Chain>


> <UniProt (TrEMBL) Primary ID of Target Chain>


> <UniProt (TrEMBL) Secondary ID(s) of Target Chain>


> <UniProt (TrEMBL) Alternative ID(s) of Target Chain>


$$$$

  SciTegic12201612272D

 28 31  0  0  0  0            999 V2000
    3.0534    8.0548    0.0000 S   0  0
    3.8564    6.8030    0.0000 C   0  0
    5.3037    7.1456    0.0000 N   0  0
    5.4084    8.6419    0.0000 C   0  0
    4.0176    9.2039    0.0000 C   0  0
    6.6806    9.4333    0.0000 C   0  0
    7.7393    8.8684    0.0000 O   0  0
    6.6408   10.6326    0.0000 O   0  0
    3.2965    5.4106    0.0000 N   0  0
    1.8114    5.1995    0.0000 C   0  0
    1.2517    3.8078    0.0000 C   0  0
    2.1749    2.6315    0.0000 C   0  0
    3.6621    2.8384    0.0000 C   0  0
    4.2218    4.2301    0.0000 C   0  0
    0.2917   -0.7475    0.0000 C   0  0
    0.2917    0.7475    0.0000 C   0  0
   -1.0028    1.5132    0.0000 C   0  0
   -2.3155    0.7475    0.0000 C   0  0
   -2.3155   -0.7475    0.0000 C   0  0
   -1.0028   -1.5132    0.0000 N   0  0
    2.5889    0.0182    0.0000 N   0  0
    1.7138   -1.2033    0.0000 N   0  0
    1.7138    1.2033    0.0000 C   0  0
   -0.9971   -3.0138    0.0000 C   0  0
   -2.2935   -3.7700    0.0000 C   0  0
   -2.2889   -4.9699    0.0000 C   0  0
   -3.3560   -1.3452    0.0000 O   0  0
    3.7273   10.3682    0.0000 C   0  0
  1  2  1  0
  2  3  2  0
  3  4  1  0
  4  5  2  0
  1  5  1  0
  6  7  2  0
  6  8  1  0
  4  6  1  0
  9 10  1  0
 10 11  1  0
 11 12  1  0
 12 13  1  0
 13 14  1  0
  9 14  1  0
 15 16  2  0
 16 17  1  0
 17 18  2  0
 18 19  1  0
 19 20  1  0
 15 20  1  0
 21 22  1  0
 21 23  2  0
 15 22  1  0
 16 23  1  0
 24 25  1  0
 25 26  1  0
 20 24  1  0
 19 27  2  0
 12 23  1  0
  2  9  1  0
  5 28  1  0
M  END
> <From> 
www.bindingDB.org

> <BindingDB Reactant_set_id>
50498688

> <Ligand InChI>
InChI=1S/C19H23N5O3S/c1-3-8-24-14(25)5-4-13-16(21-22-17(13)24)12-6-9-23(10-7-12)19-20-15(18(26)27)11(2)28-19/h4-5,12H,3,6-10H2,1-2H3,(H,21,22)(H,26,27)

> <Ligand InChI Key>
XKSMKLDAUNSDLB-UHFFFAOYSA-N

> <BindingDB MonomerID>
50173877

> <BindingDB Ligand Name>
CHEMBL3810180

> <Target Name Assigned by Curator or DataSource>
DNA gyrase

> <Target Source Organism According to Curator or DataSource>
Staphylococcus aureus

> <Ki (nM)>


> <IC50 (nM)>
 192

> <Kd (nM)>


> <EC50 (nM)>


> <kon (M-1-s-1)>


> <koff (s-1)>


> <pH>


> <Temp C>


> <Curation/DataSource>
ChEMBL

> <Article DOI>
10.1021/acsmedchemlett.5b00368

> <PMID>
27096044

> <PubChem AID>


> <Patent Number>


> <Authors>
Cross, JB; Zhang, J; Yang, Q; Mesleh, MF; Romero, JA; Wang, B; Bevan, D; Poutsiaka, KM; Epie, F; Moy, T; Daniel, A; Shotwell, J; Chamberlain, B; Carter, N; Andersen, O; Barker, J; Ryan, MD; Metcalf, CA; Silverman, J; Nguyen, K; Lippa, B; Dolle, RE

> <Institution>
Cubist Pharmaceuticals, Inc.

> <Link to Ligand in BindingDB>
http://www.bindingdb.org/bind/chemsearch/marvin/MolStructure.jsp?monomerid=50173877

> <Link to Ligand-Target Pair in BindingDB>
http://www.bindingdb.org/jsp/dbsearch/PrimarySearch_ki.jsp?energyterm=kJ/mole&tag=pol&polymerid=2626&target=DNA+gyrase&column=ki&startPg=0&Increment=50&submit=Search

> <Link to Ligand-Target Pair in BindingDB>
http://www.bindingdb.org/jsp/dbsearch/PrimarySearch_ki.jsp?energyterm=kJ/mole&tag=r21&monomerid=50173877&enzyme=DNA+gyrase&column=ki&startPg=0&Increment=50&submit=Search

> <Ligand HET ID in PDB>


> <PDB ID(s) for Ligand-Target Complex>


> <PubChem CID>
127045547

> <PubChem SID>
346548896

> <ChEBI ID of Ligand>


> <ChEMBL ID of Ligand>


> <DrugBank ID of Ligand>


> <IUPHAR_GRAC ID of Ligand>


> <KEGG ID of Ligand>


> <ZINC ID of Ligand>


> <Number of Protein Chains in Target (>1 implies a multichain complex)>
1

> <BindingDB Target Chain Sequence>
MVTALSDVNNTDNYGAGQIQVLEGLEAVRKRPGMYIGSTSERGLHHLVWEIVDNSIDEALAGYANQIEVVIEKDNWIKVTDNGRGIPVDIQEKMGRPAVEVILTVLHAGGKFGGGGYKVSGGLHGVGSSVVNALSQDLEVYVHRNETIYHQAYKKGVPQFDLKEVGTTDKTGTVIRFKADGEIFTETTVYNYETLQQRIRELAFLNKGIQITLRDERDEENVREDSYHYEGGIKSYVELLNENKEPIHDEPIYIHQSKDDIEVEIAIQYNSGYATNLLTYANNIHTYEGGTHEDGFKRALTRVLNSYGLSSKIMKEEKDRLSGEDTREGMTAIISIKHGDPQFEGQTKTKLGNSEVRQVVDKLFSEHFERFLYENPQVARTVVEKGIMAARARVAAKKAREVTRRKSALDVASLPGKLADCSSKSPEECEIFLVEGDSAGGSTKSGRDSRTQAILPLRGKILNVEKARLDRILNNNEIRQMITAFGTGIGGDFDLAKARYHKIVIMTDADVDGAHIRTLLLTFFYRFMRPLIEAGYVYIAQPPLYKLTQGKQKYYVYNDRELDKLKSELNPTPKWSIARYKGLGEMNADQLWETTMNPEHRALLQVKLEDAIEADQTFEMLMGDVVENRRQFIEDNAVYANLDF

> <PDB ID(s) of Target Chain>


> <UniProt (SwissProt) Recommended Name of Target Chain>
DNA gyrase subunit B

> <UniProt (SwissProt) Entry Name of Target Chain>
GYRB_STAAU

> <UniProt (SwissProt) Primary ID of Target Chain>
P0A0K8

> <UniProt (SwissProt) Secondary ID(s) of Target Chain>
P20832

> <UniProt (SwissProt) Alternative ID(s) of Target Chain>


> <UniProt (TrEMBL) Submitted Name of Target Chain>


> <UniProt (TrEMBL) Entry Name of Target Chain>


> <UniProt (TrEMBL) Primary ID of Target Chain>


> <UniProt (TrEMBL) Secondary ID(s) of Target Chain>


> <UniProt (TrEMBL) Alternative ID(s) of Target Chain>


$$$$

  Mrv0541 11241408262D          

 29 32  0  0  0  0            999 V2000
   10.6069   -6.9458    0.0000 C   0  0  0  0  0  0  0  0  0  0  0  0
   10.6057   -7.7732    0.0000 C   0  0  0  0  0  0  0  0  0  0  0  0
   11.3206   -8.1860    0.0000 C   0  0  0  0  0  0  0  0  0  0  0  0
   11.3188   -6.5330    0.0000 C   0  0  0  0  0  0  0  0  0  0  0  0
   12.8254   -6.6881    0.0000 N   0  0  0  0  0  0  0  0  0  0  0  0
   12.0341   -6.9422    0.0000 C   0  0  0  0  0  0  0  0  0  0  0  0
   12.0323   -7.7739    0.0000 N   0  0  0  0  0  0  0  0  0  0  0  0
   12.8235   -8.0313    0.0000 C   0  0  0  0  0  0  0  0  0  0  0  0
   13.3115   -7.3578    0.0000 C   0  0  0  0  0  0  0  0  0  0  0  0
    9.8944   -6.5336    0.0000 C   0  0  0  0  0  0  0  0  0  0  0  0
    9.8956   -5.7075    0.0000 C   0  0  0  0  0  0  0  0  0  0  0  0
    9.1819   -5.2953    0.0000 N   0  0  0  0  0  0  0  0  0  0  0  0
    8.4665   -5.7080    0.0000 C   0  0  0  0  0  0  0  0  0  0  0  0
    8.4693   -6.5373    0.0000 C   0  0  0  0  0  0  0  0  0  0  0  0
    9.1837   -6.9458    0.0000 C   0  0  0  0  0  0  0  0  0  0  0  0
   11.3226   -9.0083    0.0000 C   0  0  0  0  0  0  0  0  0  0  0  0
   10.6067   -9.4206    0.0000 N   0  0  0  0  0  0  0  0  0  0  0  0
   10.6068  -10.2448    0.0000 C   0  0  0  0  0  0  0  0  0  0  0  0
   11.3220  -10.6577    0.0000 C   0  0  0  0  0  0  0  0  0  0  0  0
   12.0386  -10.2404    0.0000 C   0  0  0  0  0  0  0  0  0  0  0  0
   12.0350   -9.4175    0.0000 N   0  0  0  0  0  0  0  0  0  0  0  0
   14.1365   -7.3574    0.0000 N   0  0  0  0  0  0  0  0  0  0  0  0
   14.5487   -6.6428    0.0000 C   0  0  0  0  0  0  0  0  0  0  0  0
   15.3737   -6.6425    0.0000 N   0  0  0  0  0  0  0  0  0  0  0  0
   14.1359   -5.9285    0.0000 O   0  0  0  0  0  0  0  0  0  0  0  0
   15.7865   -7.3568    0.0000 C   0  0  0  0  0  0  0  0  0  0  0  0
   16.6115   -7.3564    0.0000 C   0  0  0  0  0  0  0  0  0  0  0  0
    9.8923  -10.6573    0.0000 C   0  0  0  0  0  0  0  0  0  0  0  0
   12.7548  -10.6500    0.0000 C   0  0  0  0  0  0  0  0  0  0  0  0
  1  2  1  0  0  0  0
 14 15  1  0  0  0  0
 15 10  2  0  0  0  0
  1 10  1  0  0  0  0
  6  4  1  0  0  0  0
  5  6  2  0  0  0  0
 16 17  2  0  0  0  0
  7  8  1  0  0  0  0
 17 18  1  0  0  0  0
  8  9  2  0  0  0  0
 18 19  2  0  0  0  0
  9  5  1  0  0  0  0
 19 20  1  0  0  0  0
  4  1  2  0  0  0  0
 20 21  2  0  0  0  0
 21 16  1  0  0  0  0
  3 16  1  0  0  0  0
  6  7  1  0  0  0  0
  9 22  1  0  0  0  0
 10 11  1  0  0  0  0
 22 23  1  0  0  0  0
 23 24  1  0  0  0  0
 11 12  2  0  0  0  0
 23 25  2  0  0  0  0
  2  3  2  0  0  0  0
 24 26  1  0  0  0  0
 12 13  1  0  0  0  0
 26 27  1  0  0  0  0
  3  7  1  0  0  0  0
 18 28  1  0  0  0  0
 13 14  2  0  0  0  0
 20 29  1  0  0  0  0
M  END
> <From> 
www.bindingDB.org

> <BindingDB Reactant_set_id>
50904826

> <Ligand InChI>
InChI=1S/C21H21N7O/c1-4-23-21(29)27-18-12-28-17(20-24-13(2)8-14(3)25-20)9-16(10-19(28)26-18)15-6-5-7-22-11-15/h5-12H,4H2,1-3H3,(H2,23,27,29)

> <Ligand InChI Key>
GOCPACVRZTWJMW-UHFFFAOYSA-N

> <BindingDB MonomerID>
50378435

> <BindingDB Ligand Name>
CHEMBL578336

> <Target Name Assigned by Curator or DataSource>
DNA gyrase subunit B

> <Target Source Organism According to Curator or DataSource>
Streptococcus pneumoniae

> <Ki (nM)>


> <IC50 (nM)>
 198

> <Kd (nM)>


> <EC50 (nM)>


> <kon (M-1-s-1)>


> <koff (s-1)>


> <pH>


> <Temp C>


> <Curation/DataSource>
ChEMBL

> <Article DOI>
10.1016/j.bmcl.2009.07.141

> <PMID>
19683922

> <PubChem AID>


> <Patent Number>


> <Authors>
Starr, JT; Sciotti, RJ; Hanna, DL; Huband, MD; Mullins, LM; Cai, H; Gage, JW; Lockard, M; Rauckhorst, MR; Owen, RM; Lall, MS; Tomilo, M; Chen, H; McCurdy, SP; Barbachyn, MR

> <Institution>
Pfizer Inc.

> <Link to Ligand in BindingDB>
http://www.bindingdb.org/bind/chemsearch/marvin/MolStructure.jsp?monomerid=50378435

> <Link to Ligand-Target Pair in BindingDB>
http://www.bindingdb.org/jsp/dbsearch/PrimarySearch_ki.jsp?energyterm=kJ/mole&tag=pol&polymerid=50005944&target=DNA+gyrase+subunit+B&column=ki&startPg=0&Increment=50&submit=Search

> <Link to Ligand-Target Pair in BindingDB>
http://www.bindingdb.org/jsp/dbsearch/PrimarySearch_ki.jsp?energyterm=kJ/mole&tag=r21&monomerid=50378435&enzyme=DNA+gyrase+subunit+B&column=ki&startPg=0&Increment=50&submit=Search

> <Ligand HET ID in PDB>


> <PDB ID(s) for Ligand-Target Complex>


> <PubChem CID>
45484843

> <PubChem SID>
160857518

> <ChEBI ID of Ligand>


> <ChEMBL ID of Ligand>
CHEMBL578336

> <DrugBank ID of Ligand>


> <IUPHAR_GRAC ID of Ligand>


> <KEGG ID of Ligand>


> <ZINC ID of Ligand>
ZINC45301008

> <Number of Protein Chains in Target (>1 implies a multichain complex)>
1

> <BindingDB Target Chain Sequence>
MTEEIKNLQAQDYDASQIQVLEGLEAVRMRPGMYIGSTSKEGLHHLVWEIVDNSIDEALAGFASHIQVFIEPDDSITVVDDGRGIPVDIQEKTGRPAVETVFTVLHAGGKFGGGGYKVSGGLHGVGSSVVNALSTQLDVHVHKNGKIHYQEYRRGHVVADLEIVGDTDKTGTTVHFTPDPKIFTETTIFDFDKLNKRIQELAFLNRGLQISITDKRQGLEQTKHYHYEGGIASYVEYINENKDVIFDTPIYTDGEMDDITVEVAMQYTTGYHENVMSFANNIHTHEGGTHEQGFRTALTRVINDYARKNKLLKDNEDNLTGEDVREGLTAVISVKHPNPQFEGQTKTKLGNSEVVKITNRLFSEAFSDFLMENPQIAKRIVEKGILAAKARVAAKRAREVTRKKSGLEISNLPGKLADCSSNNPAETELFIVEGDSAGGSAKSGRNREFQAILPIRGKILNVEKASMDKILANEEIRSLFTAMGTGFGAEFDVSKARYQKLVLMTDADVDGAHIRTLLLTLIYRYMKPILEAGYVYIAQPPIYGVKVGSEIKEYIQPGADQEIKLQEALARYSEGRTKPTIQRYKGLGEMDDHQLWETTMDPEHRLMARVSVDDAAEADKIFDMLMGDRVEPRREFIEENAVYSTLDV

> <PDB ID(s) of Target Chain>
4Z2C,4Z2D,4Z2E

> <UniProt (SwissProt) Recommended Name of Target Chain>
DNA gyrase subunit B

> <UniProt (SwissProt) Entry Name of Target Chain>
GYRB_STRPN

> <UniProt (SwissProt) Primary ID of Target Chain>
P0A4L9

> <UniProt (SwissProt) Secondary ID(s) of Target Chain>
P48373

> <UniProt (SwissProt) Alternative ID(s) of Target Chain>


> <UniProt (TrEMBL) Submitted Name of Target Chain>


> <UniProt (TrEMBL) Entry Name of Target Chain>


> <UniProt (TrEMBL) Primary ID of Target Chain>


> <UniProt (TrEMBL) Secondary ID(s) of Target Chain>


> <UniProt (TrEMBL) Alternative ID(s) of Target Chain>


$$$$

  Mrv0541 11241415502D          

 44 47  0  0  1  0            999 V2000
   10.7542   -7.9589    0.0000 C   0  0  0  0  0  0  0  0  0  0  0  0
   10.0397   -7.5464    0.0000 O   0  0  0  0  0  0  0  0  0  0  0  0
   10.0397   -6.7214    0.0000 C   0  0  2  0  0  0  0  0  0  0  0  0
    9.3253   -6.3089    0.0000 C   0  0  1  0  0  0  0  0  0  0  0  0
    8.6108   -6.7214    0.0000 O   0  0  0  0  0  0  0  0  0  0  0  0
    8.6108   -7.5464    0.0000 C   0  0  0  0  0  0  0  0  0  0  0  0
    9.3253   -7.9589    0.0000 O   0  0  0  0  0  0  0  0  0  0  0  0
    7.8963   -7.9589    0.0000 N   0  0  0  0  0  0  0  0  0  0  0  0
    9.3253   -5.4839    0.0000 C   0  0  2  0  0  0  0  0  0  0  0  0
    8.6108   -5.0714    0.0000 O   0  0  0  0  0  0  0  0  0  0  0  0
   10.0397   -5.0714    0.0000 C   0  0  1  0  0  0  0  0  0  0  0  0
   10.0397   -4.2464    0.0000 O   0  0  0  0  0  0  0  0  0  0  0  0
   10.7542   -3.8339    0.0000 C   0  0  0  0  0  0  0  0  0  0  0  0
   10.7542   -3.0089    0.0000 C   0  0  0  0  0  0  0  0  0  0  0  0
   11.4687   -2.5964    0.0000 C   0  0  0  0  0  0  0  0  0  0  0  0
   12.1831   -3.0089    0.0000 C   0  0  0  0  0  0  0  0  0  0  0  0
   12.8976   -2.5964    0.0000 C   0  0  0  0  0  0  0  0  0  0  0  0
   13.6121   -3.0089    0.0000 C   0  0  0  0  0  0  0  0  0  0  0  0
   14.3266   -2.5964    0.0000 N   0  0  0  0  0  0  0  0  0  0  0  0
   15.0410   -3.0089    0.0000 C   0  0  0  0  0  0  0  0  0  0  0  0
   15.0410   -3.8339    0.0000 O   0  0  0  0  0  0  0  0  0  0  0  0
   15.7555   -2.5964    0.0000 C   0  0  0  0  0  0  0  0  0  0  0  0
   15.7555   -1.7714    0.0000 C   0  0  0  0  0  0  0  0  0  0  0  0
   16.4700   -1.3589    0.0000 C   0  0  0  0  0  0  0  0  0  0  0  0
   17.1844   -1.7714    0.0000 C   0  0  0  0  0  0  0  0  0  0  0  0
   17.8989   -1.3589    0.0000 O   0  0  0  0  0  0  0  0  0  0  0  0
   17.1844   -2.5964    0.0000 C   0  0  0  0  0  0  0  0  0  0  0  0
   17.8989   -3.0089    0.0000 C   0  0  0  0  0  0  0  0  0  0  0  0
   18.6134   -2.5964    0.0000 C   0  0  0  0  0  0  0  0  0  0  0  0
   19.3279   -3.0089    0.0000 C   0  0  0  0  0  0  0  0  0  0  0  0
   20.0423   -2.5964    0.0000 C   0  0  0  0  0  0  0  0  0  0  0  0
   19.3279   -3.8339    0.0000 C   0  0  0  0  0  0  0  0  0  0  0  0
   16.4700   -3.0089    0.0000 C   0  0  0  0  0  0  0  0  0  0  0  0
   13.6121   -3.8339    0.0000 C   0  0  0  0  0  0  0  0  0  0  0  0
   14.3266   -4.2464    0.0000 O   0  0  0  0  0  0  0  0  0  0  0  0
   12.8976   -4.2464    0.0000 O   0  0  0  0  0  0  0  0  0  0  0  0
   12.1831   -3.8339    0.0000 C   0  0  0  0  0  0  0  0  0  0  0  0
   11.4687   -4.2464    0.0000 C   0  0  0  0  0  0  0  0  0  0  0  0
   11.4687   -5.0714    0.0000 C   0  0  0  0  0  0  0  0  0  0  0  0
   12.8976   -1.7714    0.0000 O   0  0  0  0  0  0  0  0  0  0  0  0
   10.7542   -5.4839    0.0000 O   0  0  0  0  0  0  0  0  0  0  0  0
   10.7542   -6.3089    0.0000 C   0  0  0  0  0  0  0  0  0  0  0  0
   11.5787   -6.3377    0.0000 C   0  0  0  0  0  0  0  0  0  0  0  0
   11.1914   -7.0085    0.0000 C   0  0  0  0  0  0  0  0  0  0  0  0
  1  2  1  0  0  0  0
  3  2  1  6  0  0  0
  4  3  1  0  0  0  0
  4  5  1  1  0  0  0
  5  6  1  0  0  0  0
  6  7  2  0  0  0  0
  6  8  1  0  0  0  0
  4  9  1  0  0  0  0
  9 10  1  6  0  0  0
  9 11  1  0  0  0  0
 11 12  1  1  0  0  0
 12 13  1  0  0  0  0
 13 14  2  0  0  0  0
 14 15  1  0  0  0  0
 15 16  2  0  0  0  0
 16 17  1  0  0  0  0
 17 18  2  0  0  0  0
 18 19  1  0  0  0  0
 19 20  1  0  0  0  0
 20 21  2  0  0  0  0
 20 22  1  0  0  0  0
 22 23  2  0  0  0  0
 23 24  1  0  0  0  0
 24 25  2  0  0  0  0
 25 26  1  0  0  0  0
 25 27  1  0  0  0  0
 27 28  1  0  0  0  0
 28 29  1  0  0  0  0
 29 30  2  0  0  0  0
 30 31  1  0  0  0  0
 30 32  1  0  0  0  0
 27 33  2  0  0  0  0
 22 33  1  0  0  0  0
 18 34  1  0  0  0  0
 34 35  2  0  0  0  0
 34 36  1  0  0  0  0
 36 37  1  0  0  0  0
 16 37  1  0  0  0  0
 37 38  2  0  0  0  0
 13 38  1  0  0  0  0
 38 39  1  0  0  0  0
 17 40  1  0  0  0  0
 11 41  1  0  0  0  0
 41 42  1  0  0  0  0
  3 42  1  0  0  0  0
 42 43  1  0  0  0  0
 42 44  1  0  0  0  0
M  END
> <From> 
www.bindingDB.org

> <BindingDB Reactant_set_id>
51083543

> <Ligand InChI>
InChI=1S/C31H36N2O11/c1-14(2)7-8-16-13-17(9-11-19(16)34)27(37)33-21-22(35)18-10-12-20(15(3)24(18)42-28(21)38)41-29-23(36)25(43-30(32)39)26(40-6)31(4,5)44-29/h7,9-13,23,25-26,29,34-36H,8H2,1-6H3,(H2,32,39)(H,33,37)/t23-,25-,26+,29-/m0/s1

> <Ligand InChI Key>
YJQPYGGHQPGBLI-FWPHEPGVSA-N

> <BindingDB MonomerID>
50423645

> <BindingDB Ligand Name>
Albamycin::Cathomycin::NOVOBIOCIN

> <Target Name Assigned by Curator or DataSource>
DNA gyrase subunit B

> <Target Source Organism According to Curator or DataSource>


> <Ki (nM)>


> <IC50 (nM)>
 200

> <Kd (nM)>


> <EC50 (nM)>


> <kon (M-1-s-1)>


> <koff (s-1)>


> <pH>


> <Temp C>


> <Curation/DataSource>
ChEMBL

> <Article DOI>
10.1016/j.ejmech.2013.09.025

> <PMID>
24148991

> <PubChem AID>


> <Patent Number>


> <Authors>
Jeankumar, VU; Renuka, J; Santosh, P; Soni, V; Sridevi, JP; Suryadevara, P; Yogeeswari, P; Sriram, D

> <Institution>
Birla Institute of Technology&amp; Science-Pilani

> <Link to Ligand in BindingDB>
http://www.bindingdb.org/bind/chemsearch/marvin/MolStructure.jsp?monomerid=50423645

> <Link to Ligand-Target Pair in BindingDB>
http://www.bindingdb.org/jsp/dbsearch/PrimarySearch_ki.jsp?energyterm=kJ/mole&tag=pol&polymerid=50006452&target=DNA+gyrase+subunit+B&column=ki&startPg=0&Increment=50&submit=Search

> <Link to Ligand-Target Pair in BindingDB>
http://www.bindingdb.org/jsp/dbsearch/PrimarySearch_ki.jsp?energyterm=kJ/mole&tag=r21&monomerid=50423645&enzyme=DNA+gyrase+subunit+B&column=ki&startPg=0&Increment=50&submit=Search

> <Ligand HET ID in PDB>


> <PDB ID(s) for Ligand-Target Complex>


> <PubChem CID>
71719647

> <PubChem SID>
164152520

> <ChEBI ID of Ligand>


> <ChEMBL ID of Ligand>


> <DrugBank ID of Ligand>


> <IUPHAR_GRAC ID of Ligand>


> <KEGG ID of Ligand>


> <ZINC ID of Ligand>
ZINC76945632

> <Number of Protein Chains in Target (>1 implies a multichain complex)>
1

> <BindingDB Target Chain Sequence>
MAAQKNNAPKEYGADSITILEGLEAVRKRPGMYIGSTGERGLHHLIWEVVDNAVDEAMAGFATRVDVKIHADGSVEVRDDGRGIPVEMHATGMPTIDVVMTQLHAGGKFDGETYAVSGGLHGVGVSVVNALSTRLEATVLRDGYEWFQYYDRSVPGKLKQGGETKETGTTIRFWADPEIFETTDYNFETVARRLQEMAFLNKGLTIELTDERVTAEEVVDDVVKDTAEAPKTADEKAAEATGPSKVKHRVFHYPGGLVDYVKHINRTKTPIQQSIIDFDGKGPGHEVEIAMQWNAGYSESVHTFANTINTHEGGTHEEGFRAALTSVVNRYAKDKKLLKDKDPNLTGDDIREGLAAVISVKVAEPQFEGQTKTKLGNTEVKSFVQKICNEQLQHWFEANPAEAKTVVNKAVSSAQARIAARKARELVRRKSATDIGGLPGKLADCRSTDPSKSELYVVEGDSAGGSAKSGRDSMFQAILPLRGKIINVEKARIDRVLKNTEVQSIITALGTGIHDEFDISKLRYHKIVLMADADVDGQHISTLLLTLLFRFMKPLVENGHIFLAQPPLYKLKWQRSEPEFAYSDRERDGLLEAGRAAGKKINVDDGIQRYKGLGEMDAKELWETTMDPSVRVLRQVTLDDAAAADELFSILMGEDVEARRSFITRNAKDVRFLDV

> <PDB ID(s) of Target Chain>
4BAE

> <UniProt (SwissProt) Recommended Name of Target Chain>
DNA gyrase subunit B

> <UniProt (SwissProt) Entry Name of Target Chain>
GYRB_MYCSM

> <UniProt (SwissProt) Primary ID of Target Chain>
P0C559

> <UniProt (SwissProt) Secondary ID(s) of Target Chain>
P48355,Q59555

> <UniProt (SwissProt) Alternative ID(s) of Target Chain>


> <UniProt (TrEMBL) Submitted Name of Target Chain>


> <UniProt (TrEMBL) Entry Name of Target Chain>


> <UniProt (TrEMBL) Primary ID of Target Chain>


> <UniProt (TrEMBL) Secondary ID(s) of Target Chain>


> <UniProt (TrEMBL) Alternative ID(s) of Target Chain>


$$$$

  Mrv0541 11241415502D          

 44 47  0  0  1  0            999 V2000
   10.7542   -7.9589    0.0000 C   0  0  0  0  0  0  0  0  0  0  0  0
   10.0397   -7.5464    0.0000 O   0  0  0  0  0  0  0  0  0  0  0  0
   10.0397   -6.7214    0.0000 C   0  0  2  0  0  0  0  0  0  0  0  0
    9.3253   -6.3089    0.0000 C   0  0  1  0  0  0  0  0  0  0  0  0
    8.6108   -6.7214    0.0000 O   0  0  0  0  0  0  0  0  0  0  0  0
    8.6108   -7.5464    0.0000 C   0  0  0  0  0  0  0  0  0  0  0  0
    9.3253   -7.9589    0.0000 O   0  0  0  0  0  0  0  0  0  0  0  0
    7.8963   -7.9589    0.0000 N   0  0  0  0  0  0  0  0  0  0  0  0
    9.3253   -5.4839    0.0000 C   0  0  2  0  0  0  0  0  0  0  0  0
    8.6108   -5.0714    0.0000 O   0  0  0  0  0  0  0  0  0  0  0  0
   10.0397   -5.0714    0.0000 C   0  0  1  0  0  0  0  0  0  0  0  0
   10.0397   -4.2464    0.0000 O   0  0  0  0  0  0  0  0  0  0  0  0
   10.7542   -3.8339    0.0000 C   0  0  0  0  0  0  0  0  0  0  0  0
   10.7542   -3.0089    0.0000 C   0  0  0  0  0  0  0  0  0  0  0  0
   11.4687   -2.5964    0.0000 C   0  0  0  0  0  0  0  0  0  0  0  0
   12.1831   -3.0089    0.0000 C   0  0  0  0  0  0  0  0  0  0  0  0
   12.8976   -2.5964    0.0000 C   0  0  0  0  0  0  0  0  0  0  0  0
   13.6121   -3.0089    0.0000 C   0  0  0  0  0  0  0  0  0  0  0  0
   14.3266   -2.5964    0.0000 N   0  0  0  0  0  0  0  0  0  0  0  0
   15.0410   -3.0089    0.0000 C   0  0  0  0  0  0  0  0  0  0  0  0
   15.0410   -3.8339    0.0000 O   0  0  0  0  0  0  0  0  0  0  0  0
   15.7555   -2.5964    0.0000 C   0  0  0  0  0  0  0  0  0  0  0  0
   15.7555   -1.7714    0.0000 C   0  0  0  0  0  0  0  0  0  0  0  0
   16.4700   -1.3589    0.0000 C   0  0  0  0  0  0  0  0  0  0  0  0
   17.1844   -1.7714    0.0000 C   0  0  0  0  0  0  0  0  0  0  0  0
   17.8989   -1.3589    0.0000 O   0  0  0  0  0  0  0  0  0  0  0  0
   17.1844   -2.5964    0.0000 C   0  0  0  0  0  0  0  0  0  0  0  0
   17.8989   -3.0089    0.0000 C   0  0  0  0  0  0  0  0  0  0  0  0
   18.6134   -2.5964    0.0000 C   0  0  0  0  0  0  0  0  0  0  0  0
   19.3279   -3.0089    0.0000 C   0  0  0  0  0  0  0  0  0  0  0  0
   20.0423   -2.5964    0.0000 C   0  0  0  0  0  0  0  0  0  0  0  0
   19.3279   -3.8339    0.0000 C   0  0  0  0  0  0  0  0  0  0  0  0
   16.4700   -3.0089    0.0000 C   0  0  0  0  0  0  0  0  0  0  0  0
   13.6121   -3.8339    0.0000 C   0  0  0  0  0  0  0  0  0  0  0  0
   14.3266   -4.2464    0.0000 O   0  0  0  0  0  0  0  0  0  0  0  0
   12.8976   -4.2464    0.0000 O   0  0  0  0  0  0  0  0  0  0  0  0
   12.1831   -3.8339    0.0000 C   0  0  0  0  0  0  0  0  0  0  0  0
   11.4687   -4.2464    0.0000 C   0  0  0  0  0  0  0  0  0  0  0  0
   11.4687   -5.0714    0.0000 C   0  0  0  0  0  0  0  0  0  0  0  0
   12.8976   -1.7714    0.0000 O   0  0  0  0  0  0  0  0  0  0  0  0
   10.7542   -5.4839    0.0000 O   0  0  0  0  0  0  0  0  0  0  0  0
   10.7542   -6.3089    0.0000 C   0  0  0  0  0  0  0  0  0  0  0  0
   11.5787   -6.3377    0.0000 C   0  0  0  0  0  0  0  0  0  0  0  0
   11.1914   -7.0085    0.0000 C   0  0  0  0  0  0  0  0  0  0  0  0
  1  2  1  0  0  0  0
  3  2  1  6  0  0  0
  4  3  1  0  0  0  0
  4  5  1  1  0  0  0
  5  6  1  0  0  0  0
  6  7  2  0  0  0  0
  6  8  1  0  0  0  0
  4  9  1  0  0  0  0
  9 10  1  6  0  0  0
  9 11  1  0  0  0  0
 11 12  1  1  0  0  0
 12 13  1  0  0  0  0
 13 14  2  0  0  0  0
 14 15  1  0  0  0  0
 15 16  2  0  0  0  0
 16 17  1  0  0  0  0
 17 18  2  0  0  0  0
 18 19  1  0  0  0  0
 19 20  1  0  0  0  0
 20 21  2  0  0  0  0
 20 22  1  0  0  0  0
 22 23  2  0  0  0  0
 23 24  1  0  0  0  0
 24 25  2  0  0  0  0
 25 26  1  0  0  0  0
 25 27  1  0  0  0  0
 27 28  1  0  0  0  0
 28 29  1  0  0  0  0
 29 30  2  0  0  0  0
 30 31  1  0  0  0  0
 30 32  1  0  0  0  0
 27 33  2  0  0  0  0
 22 33  1  0  0  0  0
 18 34  1  0  0  0  0
 34 35  2  0  0  0  0
 34 36  1  0  0  0  0
 36 37  1  0  0  0  0
 16 37  1  0  0  0  0
 37 38  2  0  0  0  0
 13 38  1  0  0  0  0
 38 39  1  0  0  0  0
 17 40  1  0  0  0  0
 11 41  1  0  0  0  0
 41 42  1  0  0  0  0
  3 42  1  0  0  0  0
 42 43  1  0  0  0  0
 42 44  1  0  0  0  0
M  END
> <From> 
www.bindingDB.org

> <BindingDB Reactant_set_id>
51037575

> <Ligand InChI>
InChI=1S/C31H36N2O11/c1-14(2)7-8-16-13-17(9-11-19(16)34)27(37)33-21-22(35)18-10-12-20(15(3)24(18)42-28(21)38)41-29-23(36)25(43-30(32)39)26(40-6)31(4,5)44-29/h7,9-13,23,25-26,29,34-36H,8H2,1-6H3,(H2,32,39)(H,33,37)/t23-,25-,26+,29-/m0/s1

> <Ligand InChI Key>
YJQPYGGHQPGBLI-FWPHEPGVSA-N

> <BindingDB MonomerID>
50423645

> <BindingDB Ligand Name>
Albamycin::Cathomycin::NOVOBIOCIN

> <Target Name Assigned by Curator or DataSource>
DNA Gyrase Subunit B

> <Target Source Organism According to Curator or DataSource>
Escherichia coli

> <Ki (nM)>


> <IC50 (nM)>
 200

> <Kd (nM)>


> <EC50 (nM)>


> <kon (M-1-s-1)>


> <koff (s-1)>


> <pH>


> <Temp C>


> <Curation/DataSource>
ChEMBL

> <Article DOI>
10.1128/AAC.01235-07

> <PMID>
18347114

> <PubChem AID>


> <Patent Number>


> <Authors>
Anderle, C; Stieger, M; Burrell, M; Reinelt, S; Maxwell, A; Page, M; Heide, L

> <Institution>
Universit&#228;t T&#252;bingen

> <Link to Ligand in BindingDB>
http://www.bindingdb.org/bind/chemsearch/marvin/MolStructure.jsp?monomerid=50423645

> <Link to Ligand-Target Pair in BindingDB>
http://www.bindingdb.org/jsp/dbsearch/PrimarySearch_ki.jsp?energyterm=kJ/mole&tag=pol&polymerid=2630&target=DNA+Gyrase+Subunit+B&column=ki&startPg=0&Increment=50&submit=Search

> <Link to Ligand-Target Pair in BindingDB>
http://www.bindingdb.org/jsp/dbsearch/PrimarySearch_ki.jsp?energyterm=kJ/mole&tag=r21&monomerid=50423645&enzyme=DNA+Gyrase+Subunit+B&column=ki&startPg=0&Increment=50&submit=Search

> <Ligand HET ID in PDB>


> <PDB ID(s) for Ligand-Target Complex>


> <PubChem CID>
71719647

> <PubChem SID>
164152520

> <ChEBI ID of Ligand>


> <ChEMBL ID of Ligand>


> <DrugBank ID of Ligand>


> <IUPHAR_GRAC ID of Ligand>


> <KEGG ID of Ligand>


> <ZINC ID of Ligand>
ZINC76945632

> <Number of Protein Chains in Target (>1 implies a multichain complex)>
1

> <BindingDB Target Chain Sequence>
MSNSYDSSSIKVLKGLDAVRKRPGMYIGDTDDGTGLHHMVFEVVDNAIDEALAGHCKEII
VTIHADNSVSVQDDGRGIPTGIHPEEGVSAAEVIMTVLHAGGKFDDNSYKVSGGLHGVGV
SVVNALSQKLELVIQREGKIHRQIYEHGVPQAPLAVTGETEKTGTMVRFWPSLETFTNVT
EFEYEILAKRLRELSFLNSGVSIRLRDKRDGKEDHFHYEGGIKAFVEYLNKNKTPIHPNI
FYFSTEKDGIGVEVALQWNDGFQENIYCFTNNIPQRDGGTHLAGFRAAMTRTLNAYMDKE
GYSKKAKVSATGDDAREGLIAVVSVKVPDPKFSSQTKDKLVSSEVKSAVEQQMNELLAEY
LLENPTDAKIVVGKIIDAARAREAARRAREMTRRKGALDLAGLPGKLADCQERDPALSEL
YLVEGDSAGGSAKQGRNRKNQAILPLKGKILNVEKARFDKMLSSQEVATLITALGCGIGR
DEYNPDKLRYHSIIIMTDADVDGSHIRTLLLTFFYRQMPEIVERGHVYIAQPPLYKVKKG
KQEQYIKDDEAMDQYQISIALDGATLHTNASAPALAGEALEKLVSEYNATQKMINRMERR
YPKAMLKELIYQPTLTEADLSDEQTVTRWVNALVSELNDKEQHGSQWKFDVHTNAEQNLF
EPIVRVRTHGVDTDYPLDHEFITGGEYRRICTLGEKLRGLLEEDAFIERGERRQPVASFE
QALDWLVKESRRGLSIQRYKGLGEMNPEQLWETTMDPESRRMLRVTVKDAIAADQLFTTL
MGDAVEPRRAFIEENALKAANIDI

> <PDB ID(s) of Target Chain>
1KZN,3G7E,3NUH,4DUH,4HYP,4KFG,4PRV,4PRX,4PU9,4WUB,4WUC,4WUD,4XTJ,4ZVI,5L3J,5MMN,5MMO,5MMP,5Z4H,5Z4O,5Z9B,5Z9E,5Z9F,5Z9L,5Z9M,5Z9N,5Z9Q,6ENG,6F86,6F8J,6F94,6F96

> <UniProt (SwissProt) Recommended Name of Target Chain>
DNA gyrase subunit B

> <UniProt (SwissProt) Entry Name of Target Chain>
GYRB_ECOLI

> <UniProt (SwissProt) Primary ID of Target Chain>
P0AES6

> <UniProt (SwissProt) Secondary ID(s) of Target Chain>
O08438,P06982,Q2M811

> <UniProt (SwissProt) Alternative ID(s) of Target Chain>


> <UniProt (TrEMBL) Submitted Name of Target Chain>


> <UniProt (TrEMBL) Entry Name of Target Chain>


> <UniProt (TrEMBL) Primary ID of Target Chain>


> <UniProt (TrEMBL) Secondary ID(s) of Target Chain>


> <UniProt (TrEMBL) Alternative ID(s) of Target Chain>


$$$$

  SciTegic12201612272D

 25 28  0  0  0  0            999 V2000
    0.2917   -0.7475    0.0000 C   0  0
    0.2917    0.7475    0.0000 C   0  0
   -1.0028    1.5132    0.0000 C   0  0
   -2.3155    0.7475    0.0000 C   0  0
   -2.3155   -0.7475    0.0000 C   0  0
   -1.0028   -1.5132    0.0000 N   0  0
    2.5889    0.0182    0.0000 N   0  0
    1.7138   -1.2033    0.0000 N   0  0
    1.7138    1.2033    0.0000 C   0  0
   -3.3560   -1.3452    0.0000 O   0  0
    3.6243    2.9682    0.0000 S   0  0
    3.7308    4.4645    0.0000 C   0  0
    2.3406    5.0280    0.0000 N   0  0
    1.3751    3.8801    0.0000 C   0  0
    2.1749    2.6315    0.0000 C   0  0
    6.3724    4.6552    0.0000 C   0  0
    5.0044    5.2582    0.0000 C   0  0
    4.8363    6.7505    0.0000 C   0  0
    6.0460    7.6374    0.0000 C   0  0
    7.4189    7.0332    0.0000 C   0  0
    7.5821    5.5421    0.0000 N   0  0
   -3.6187    1.4919    0.0000 C   0  0
   -3.6251    2.6919    0.0000 O   0  0
   -0.9971   -3.0138    0.0000 C   0  0
   -2.0337   -3.6184    0.0000 C   0  0
  1  2  2  0
  2  3  1  0
  3  4  2  0
  4  5  1  0
  5  6  1  0
  1  6  1  0
  7  8  1  0
  7  9  2  0
  1  8  1  0
  2  9  1  0
  5 10  2  0
 11 12  1  0
 12 13  2  0
 13 14  1  0
 14 15  2  0
 11 15  1  0
 16 17  1  0
 17 18  2  0
 18 19  1  0
 19 20  2  0
 20 21  1  0
 16 21  2  0
 12 17  1  0
  9 15  1  0
 22 23  1  0
  4 22  1  0
 24 25  1  0
  6 24  1  0
M  END
> <From> 
www.bindingDB.org

> <BindingDB Reactant_set_id>
50498693

> <Ligand InChI>
InChI=1S/C17H15N5O2S/c1-2-22-15-12(6-11(9-23)17(22)24)14(20-21-15)13-8-19-16(25-13)10-4-3-5-18-7-10/h3-8,23H,2,9H2,1H3,(H,20,21)

> <Ligand InChI Key>
YSLWWQXEJUQZPO-UHFFFAOYSA-N

> <BindingDB MonomerID>
50173881

> <BindingDB Ligand Name>
CHEMBL3810190

> <Target Name Assigned by Curator or DataSource>
DNA gyrase

> <Target Source Organism According to Curator or DataSource>
Staphylococcus aureus

> <Ki (nM)>


> <IC50 (nM)>
 202

> <Kd (nM)>


> <EC50 (nM)>


> <kon (M-1-s-1)>


> <koff (s-1)>


> <pH>


> <Temp C>


> <Curation/DataSource>
ChEMBL

> <Article DOI>
10.1021/acsmedchemlett.5b00368

> <PMID>
27096044

> <PubChem AID>


> <Patent Number>


> <Authors>
Cross, JB; Zhang, J; Yang, Q; Mesleh, MF; Romero, JA; Wang, B; Bevan, D; Poutsiaka, KM; Epie, F; Moy, T; Daniel, A; Shotwell, J; Chamberlain, B; Carter, N; Andersen, O; Barker, J; Ryan, MD; Metcalf, CA; Silverman, J; Nguyen, K; Lippa, B; Dolle, RE

> <Institution>
Cubist Pharmaceuticals, Inc.

> <Link to Ligand in BindingDB>
http://www.bindingdb.org/bind/chemsearch/marvin/MolStructure.jsp?monomerid=50173881

> <Link to Ligand-Target Pair in BindingDB>
http://www.bindingdb.org/jsp/dbsearch/PrimarySearch_ki.jsp?energyterm=kJ/mole&tag=pol&polymerid=2626&target=DNA+gyrase&column=ki&startPg=0&Increment=50&submit=Search

> <Link to Ligand-Target Pair in BindingDB>
http://www.bindingdb.org/jsp/dbsearch/PrimarySearch_ki.jsp?energyterm=kJ/mole&tag=r21&monomerid=50173881&enzyme=DNA+gyrase&column=ki&startPg=0&Increment=50&submit=Search

> <Ligand HET ID in PDB>


> <PDB ID(s) for Ligand-Target Complex>


> <PubChem CID>
127045551

> <PubChem SID>
346548900

> <ChEBI ID of Ligand>


> <ChEMBL ID of Ligand>


> <DrugBank ID of Ligand>


> <IUPHAR_GRAC ID of Ligand>


> <KEGG ID of Ligand>


> <ZINC ID of Ligand>


> <Number of Protein Chains in Target (>1 implies a multichain complex)>
1

> <BindingDB Target Chain Sequence>
MVTALSDVNNTDNYGAGQIQVLEGLEAVRKRPGMYIGSTSERGLHHLVWEIVDNSIDEALAGYANQIEVVIEKDNWIKVTDNGRGIPVDIQEKMGRPAVEVILTVLHAGGKFGGGGYKVSGGLHGVGSSVVNALSQDLEVYVHRNETIYHQAYKKGVPQFDLKEVGTTDKTGTVIRFKADGEIFTETTVYNYETLQQRIRELAFLNKGIQITLRDERDEENVREDSYHYEGGIKSYVELLNENKEPIHDEPIYIHQSKDDIEVEIAIQYNSGYATNLLTYANNIHTYEGGTHEDGFKRALTRVLNSYGLSSKIMKEEKDRLSGEDTREGMTAIISIKHGDPQFEGQTKTKLGNSEVRQVVDKLFSEHFERFLYENPQVARTVVEKGIMAARARVAAKKAREVTRRKSALDVASLPGKLADCSSKSPEECEIFLVEGDSAGGSTKSGRDSRTQAILPLRGKILNVEKARLDRILNNNEIRQMITAFGTGIGGDFDLAKARYHKIVIMTDADVDGAHIRTLLLTFFYRFMRPLIEAGYVYIAQPPLYKLTQGKQKYYVYNDRELDKLKSELNPTPKWSIARYKGLGEMNADQLWETTMNPEHRALLQVKLEDAIEADQTFEMLMGDVVENRRQFIEDNAVYANLDF

> <PDB ID(s) of Target Chain>


> <UniProt (SwissProt) Recommended Name of Target Chain>
DNA gyrase subunit B

> <UniProt (SwissProt) Entry Name of Target Chain>
GYRB_STAAU

> <UniProt (SwissProt) Primary ID of Target Chain>
P0A0K8

> <UniProt (SwissProt) Secondary ID(s) of Target Chain>
P20832

> <UniProt (SwissProt) Alternative ID(s) of Target Chain>


> <UniProt (TrEMBL) Submitted Name of Target Chain>


> <UniProt (TrEMBL) Entry Name of Target Chain>


> <UniProt (TrEMBL) Primary ID of Target Chain>


> <UniProt (TrEMBL) Secondary ID(s) of Target Chain>


> <UniProt (TrEMBL) Alternative ID(s) of Target Chain>


$$$$

  Mrv0541 11241408262D          

 32 35  0  0  0  0            999 V2000
   -2.3473  -14.2208    0.0000 C   0  0  0  0  0  0  0  0  0  0  0  0
   -2.3484  -15.0482    0.0000 C   0  0  0  0  0  0  0  0  0  0  0  0
   -1.6336  -15.4610    0.0000 C   0  0  0  0  0  0  0  0  0  0  0  0
   -1.6354  -13.8080    0.0000 C   0  0  0  0  0  0  0  0  0  0  0  0
   -0.1287  -13.9631    0.0000 N   0  0  0  0  0  0  0  0  0  0  0  0
   -0.9200  -14.2172    0.0000 C   0  0  0  0  0  0  0  0  0  0  0  0
   -0.9218  -15.0489    0.0000 N   0  0  0  0  0  0  0  0  0  0  0  0
   -0.1307  -15.3063    0.0000 C   0  0  0  0  0  0  0  0  0  0  0  0
    0.3573  -14.6328    0.0000 C   0  0  0  0  0  0  0  0  0  0  0  0
   -3.0597  -13.8086    0.0000 C   0  0  0  0  0  0  0  0  0  0  0  0
   -3.0586  -12.9825    0.0000 C   0  0  0  0  0  0  0  0  0  0  0  0
   -3.7723  -12.5703    0.0000 N   0  0  0  0  0  0  0  0  0  0  0  0
   -4.4877  -12.9830    0.0000 C   0  0  0  0  0  0  0  0  0  0  0  0
   -4.4848  -13.8123    0.0000 C   0  0  0  0  0  0  0  0  0  0  0  0
   -3.7705  -14.2208    0.0000 C   0  0  0  0  0  0  0  0  0  0  0  0
   -1.6316  -16.2833    0.0000 C   0  0  0  0  0  0  0  0  0  0  0  0
   -2.3475  -16.6956    0.0000 N   0  0  0  0  0  0  0  0  0  0  0  0
   -2.3474  -17.5198    0.0000 C   0  0  0  0  0  0  0  0  0  0  0  0
   -1.6321  -17.9327    0.0000 C   0  0  0  0  0  0  0  0  0  0  0  0
   -0.9155  -17.5154    0.0000 C   0  0  0  0  0  0  0  0  0  0  0  0
   -0.9192  -16.6925    0.0000 N   0  0  0  0  0  0  0  0  0  0  0  0
    1.1823  -14.6324    0.0000 N   0  0  0  0  0  0  0  0  0  0  0  0
    1.5945  -13.9178    0.0000 C   0  0  0  0  0  0  0  0  0  0  0  0
    2.4195  -13.9175    0.0000 N   0  0  0  0  0  0  0  0  0  0  0  0
    1.1818  -13.2035    0.0000 O   0  0  0  0  0  0  0  0  0  0  0  0
    2.8323  -14.6318    0.0000 C   0  0  0  0  0  0  0  0  0  0  0  0
    3.6573  -14.6314    0.0000 C   0  0  0  0  0  0  0  0  0  0  0  0
   -3.0618  -17.9323    0.0000 C   0  0  0  0  0  0  0  0  0  0  0  0
   -0.1994  -17.9250    0.0000 C   0  0  0  0  0  0  0  0  0  0  0  0
   -3.7763  -17.5199    0.0000 F   0  0  0  0  0  0  0  0  0  0  0  0
   -3.0618  -18.7573    0.0000 F   0  0  0  0  0  0  0  0  0  0  0  0
   -3.7792  -18.3375    0.0000 F   0  0  0  0  0  0  0  0  0  0  0  0
  1 10  1  0  0  0  0
  6  4  1  0  0  0  0
  5  6  2  0  0  0  0
 16 17  2  0  0  0  0
  7  8  1  0  0  0  0
 17 18  1  0  0  0  0
  8  9  2  0  0  0  0
 18 19  2  0  0  0  0
  9  5  1  0  0  0  0
 19 20  1  0  0  0  0
  4  1  2  0  0  0  0
 20 21  2  0  0  0  0
 21 16  1  0  0  0  0
  3 16  1  0  0  0  0
  6  7  1  0  0  0  0
  9 22  1  0  0  0  0
 10 11  2  0  0  0  0
 22 23  1  0  0  0  0
 23 24  1  0  0  0  0
 11 12  1  0  0  0  0
 23 25  2  0  0  0  0
  2  3  2  0  0  0  0
 24 26  1  0  0  0  0
 12 13  2  0  0  0  0
 26 27  1  0  0  0  0
  3  7  1  0  0  0  0
 18 28  1  0  0  0  0
 13 14  1  0  0  0  0
 20 29  1  0  0  0  0
  1  2  1  0  0  0  0
 28 30  1  0  0  0  0
 14 15  2  0  0  0  0
 28 31  1  0  0  0  0
 15 10  1  0  0  0  0
 28 32  1  0  0  0  0
M  END
> <From> 
www.bindingDB.org

> <BindingDB Reactant_set_id>
50904827

> <Ligand InChI>
InChI=1S/C21H18F3N7O/c1-3-26-20(32)30-17-11-31-15(19-27-12(2)7-16(28-19)21(22,23)24)8-14(9-18(31)29-17)13-5-4-6-25-10-13/h4-11H,3H2,1-2H3,(H2,26,30,32)

> <Ligand InChI Key>
JUEGEQYABKTKRI-UHFFFAOYSA-N

> <BindingDB MonomerID>
50378436

> <BindingDB Ligand Name>
CHEMBL578991

> <Target Name Assigned by Curator or DataSource>
DNA gyrase subunit B

> <Target Source Organism According to Curator or DataSource>
Streptococcus pneumoniae

> <Ki (nM)>


> <IC50 (nM)>
 216

> <Kd (nM)>


> <EC50 (nM)>


> <kon (M-1-s-1)>


> <koff (s-1)>


> <pH>


> <Temp C>


> <Curation/DataSource>
ChEMBL

> <Article DOI>
10.1016/j.bmcl.2009.07.141

> <PMID>
19683922

> <PubChem AID>


> <Patent Number>


> <Authors>
Starr, JT; Sciotti, RJ; Hanna, DL; Huband, MD; Mullins, LM; Cai, H; Gage, JW; Lockard, M; Rauckhorst, MR; Owen, RM; Lall, MS; Tomilo, M; Chen, H; McCurdy, SP; Barbachyn, MR

> <Institution>
Pfizer Inc.

> <Link to Ligand in BindingDB>
http://www.bindingdb.org/bind/chemsearch/marvin/MolStructure.jsp?monomerid=50378436

> <Link to Ligand-Target Pair in BindingDB>
http://www.bindingdb.org/jsp/dbsearch/PrimarySearch_ki.jsp?energyterm=kJ/mole&tag=pol&polymerid=50005944&target=DNA+gyrase+subunit+B&column=ki&startPg=0&Increment=50&submit=Search

> <Link to Ligand-Target Pair in BindingDB>
http://www.bindingdb.org/jsp/dbsearch/PrimarySearch_ki.jsp?energyterm=kJ/mole&tag=r21&monomerid=50378436&enzyme=DNA+gyrase+subunit+B&column=ki&startPg=0&Increment=50&submit=Search

> <Ligand HET ID in PDB>


> <PDB ID(s) for Ligand-Target Complex>


> <PubChem CID>
45484763

> <PubChem SID>
160857519

> <ChEBI ID of Ligand>


> <ChEMBL ID of Ligand>
CHEMBL578991

> <DrugBank ID of Ligand>


> <IUPHAR_GRAC ID of Ligand>


> <KEGG ID of Ligand>


> <ZINC ID of Ligand>
ZINC45302898

> <Number of Protein Chains in Target (>1 implies a multichain complex)>
1

> <BindingDB Target Chain Sequence>
MTEEIKNLQAQDYDASQIQVLEGLEAVRMRPGMYIGSTSKEGLHHLVWEIVDNSIDEALAGFASHIQVFIEPDDSITVVDDGRGIPVDIQEKTGRPAVETVFTVLHAGGKFGGGGYKVSGGLHGVGSSVVNALSTQLDVHVHKNGKIHYQEYRRGHVVADLEIVGDTDKTGTTVHFTPDPKIFTETTIFDFDKLNKRIQELAFLNRGLQISITDKRQGLEQTKHYHYEGGIASYVEYINENKDVIFDTPIYTDGEMDDITVEVAMQYTTGYHENVMSFANNIHTHEGGTHEQGFRTALTRVINDYARKNKLLKDNEDNLTGEDVREGLTAVISVKHPNPQFEGQTKTKLGNSEVVKITNRLFSEAFSDFLMENPQIAKRIVEKGILAAKARVAAKRAREVTRKKSGLEISNLPGKLADCSSNNPAETELFIVEGDSAGGSAKSGRNREFQAILPIRGKILNVEKASMDKILANEEIRSLFTAMGTGFGAEFDVSKARYQKLVLMTDADVDGAHIRTLLLTLIYRYMKPILEAGYVYIAQPPIYGVKVGSEIKEYIQPGADQEIKLQEALARYSEGRTKPTIQRYKGLGEMDDHQLWETTMDPEHRLMARVSVDDAAEADKIFDMLMGDRVEPRREFIEENAVYSTLDV

> <PDB ID(s) of Target Chain>
4Z2C,4Z2D,4Z2E

> <UniProt (SwissProt) Recommended Name of Target Chain>
DNA gyrase subunit B

> <UniProt (SwissProt) Entry Name of Target Chain>
GYRB_STRPN

> <UniProt (SwissProt) Primary ID of Target Chain>
P0A4L9

> <UniProt (SwissProt) Secondary ID(s) of Target Chain>
P48373

> <UniProt (SwissProt) Alternative ID(s) of Target Chain>


> <UniProt (TrEMBL) Submitted Name of Target Chain>


> <UniProt (TrEMBL) Entry Name of Target Chain>


> <UniProt (TrEMBL) Primary ID of Target Chain>


> <UniProt (TrEMBL) Secondary ID(s) of Target Chain>


> <UniProt (TrEMBL) Alternative ID(s) of Target Chain>


$$$$

  Mrv0541 11241420052D          

 28 31  0  0  0  0            999 V2000
   12.1068   -3.8082    0.0000 C   0  0  0  0  0  0  0  0  0  0  0  0
   12.1057   -4.6356    0.0000 C   0  0  0  0  0  0  0  0  0  0  0  0
   12.8204   -5.0485    0.0000 N   0  0  0  0  0  0  0  0  0  0  0  0
   12.8186   -3.3955    0.0000 C   0  0  0  0  0  0  0  0  0  0  0  0
   13.5340   -3.8046    0.0000 C   0  0  0  0  0  0  0  0  0  0  0  0
   13.5343   -4.6356    0.0000 C   0  0  0  0  0  0  0  0  0  0  0  0
   14.3247   -4.8923    0.0000 S   0  0  0  0  0  0  0  0  0  0  0  0
   14.8131   -4.2197    0.0000 C   0  0  0  0  0  0  0  0  0  0  0  0
   14.3243   -3.5476    0.0000 N   0  0  0  0  0  0  0  0  0  0  0  0
   15.6381   -4.2195    0.0000 N   0  0  0  0  0  0  0  0  0  0  0  0
   16.0503   -3.5048    0.0000 C   0  0  0  0  0  0  0  0  0  0  0  0
   16.8753   -3.5045    0.0000 O   0  0  0  0  0  0  0  0  0  0  0  0
   15.6376   -2.7905    0.0000 N   0  0  0  0  0  0  0  0  0  0  0  0
   16.0498   -2.0759    0.0000 C   0  0  0  0  0  0  0  0  0  0  0  0
   15.6370   -1.3616    0.0000 C   0  0  0  0  0  0  0  0  0  0  0  0
   11.3908   -5.0475    0.0000 O   0  0  0  0  0  0  0  0  0  0  0  0
   12.8206   -5.8734    0.0000 C   0  0  0  0  0  0  0  0  0  0  0  0
   12.1063   -6.2861    0.0000 C   0  0  0  0  0  0  0  0  0  0  0  0
   13.5353   -6.2857    0.0000 C   0  0  0  0  0  0  0  0  0  0  0  0
   11.3922   -3.3959    0.0000 C   0  0  0  0  0  0  0  0  0  0  0  0
   11.3954   -2.5700    0.0000 C   0  0  0  0  0  0  0  0  0  0  0  0
    9.9693   -3.3997    0.0000 C   0  0  0  0  0  0  0  0  0  0  0  0
   10.6835   -3.8082    0.0000 C   0  0  0  0  0  0  0  0  0  0  0  0
    9.9664   -2.5705    0.0000 C   0  0  0  0  0  0  0  0  0  0  0  0
   10.6772   -2.1559    0.0000 N   0  0  0  0  0  0  0  0  0  0  0  0
   10.5026   -1.3517    0.0000 C   0  0  0  0  0  0  0  0  0  0  0  0
    9.6838   -1.2693    0.0000 N   0  0  0  0  0  0  0  0  0  0  0  0
    9.3524   -2.0225    0.0000 N   0  0  0  0  0  0  0  0  0  0  0  0
  1  2  1  0  0  0  0
  2  3  1  0  0  0  0
  3  6  1  0  0  0  0
  5  4  1  0  0  0  0
  4  1  2  0  0  0  0
  5  6  2  0  0  0  0
  6  7  1  0  0  0  0
  7  8  1  0  0  0  0
  8  9  2  0  0  0  0
  9  5  1  0  0  0  0
  8 10  1  0  0  0  0
 10 11  1  0  0  0  0
 11 12  2  0  0  0  0
 11 13  1  0  0  0  0
 13 14  1  0  0  0  0
 14 15  1  0  0  0  0
  2 16  2  0  0  0  0
  3 17  1  0  0  0  0
 17 18  1  0  0  0  0
 17 19  1  0  0  0  0
  1 20  1  0  0  0  0
 20 21  2  0  0  0  0
 21 25  1  0  0  0  0
 24 22  1  0  0  0  0
 22 23  2  0  0  0  0
 23 20  1  0  0  0  0
 24 25  1  0  0  0  0
 25 26  1  0  0  0  0
 26 27  2  0  0  0  0
 27 28  1  0  0  0  0
 28 24  2  0  0  0  0
M  END
> <From> 
www.bindingDB.org

> <BindingDB Reactant_set_id>
51091605

> <Ligand InChI>
InChI=1S/C18H19N7O2S/c1-4-19-17(27)22-18-21-13-7-12(15(26)25(10(2)3)16(13)28-18)11-5-6-14-23-20-9-24(14)8-11/h5-10H,4H2,1-3H3,(H2,19,21,22,27)

> <Ligand InChI Key>
OFLZZZOMDACGRE-UHFFFAOYSA-N

> <BindingDB MonomerID>
50447293

> <BindingDB Ligand Name>
CHEMBL3114194

> <Target Name Assigned by Curator or DataSource>
DNA gyrase subunit B

> <Target Source Organism According to Curator or DataSource>


> <Ki (nM)>


> <IC50 (nM)>
 217

> <Kd (nM)>


> <EC50 (nM)>


> <kon (M-1-s-1)>


> <koff (s-1)>


> <pH>


> <Temp C>


> <Curation/DataSource>
ChEMBL

> <Article DOI>
10.1016/j.bmcl.2013.12.080

> <PMID>
24405701

> <PubChem AID>


> <Patent Number>


> <Authors>
Kale, RR; Kale, MG; Waterson, D; Raichurkar, A; Hameed, SP; Manjunatha, MR; Kishore Reddy, BK; Malolanarasimhan, K; Shinde, V; Koushik, K; Jena, LK; Menasinakai, S; Humnabadkar, V; Madhavapeddi, P; Basavarajappa, H; Sharma, S; Nandishaiah, R; Mahesh Kumar, KN; Ganguly, S; Ahuja, V; Gaonkar, S; Naveen Kumar, CN; Ogg, D; Boriack-Sjodin, PA; Sambandamurthy, VK; de Sousa, SM; Ghorpade, SR

> <Institution>
AstraZeneca

> <Link to Ligand in BindingDB>
http://www.bindingdb.org/bind/chemsearch/marvin/MolStructure.jsp?monomerid=50447293

> <Link to Ligand-Target Pair in BindingDB>
http://www.bindingdb.org/jsp/dbsearch/PrimarySearch_ki.jsp?energyterm=kJ/mole&tag=pol&polymerid=50006452&target=DNA+gyrase+subunit+B&column=ki&startPg=0&Increment=50&submit=Search

> <Link to Ligand-Target Pair in BindingDB>
http://www.bindingdb.org/jsp/dbsearch/PrimarySearch_ki.jsp?energyterm=kJ/mole&tag=r21&monomerid=50447293&enzyme=DNA+gyrase+subunit+B&column=ki&startPg=0&Increment=50&submit=Search

> <Ligand HET ID in PDB>


> <PDB ID(s) for Ligand-Target Complex>


> <PubChem CID>
76335927

> <PubChem SID>
194945189

> <ChEBI ID of Ligand>


> <ChEMBL ID of Ligand>
CHEMBL3114194

> <DrugBank ID of Ligand>


> <IUPHAR_GRAC ID of Ligand>


> <KEGG ID of Ligand>


> <ZINC ID of Ligand>


> <Number of Protein Chains in Target (>1 implies a multichain complex)>
1

> <BindingDB Target Chain Sequence>
MAAQKNNAPKEYGADSITILEGLEAVRKRPGMYIGSTGERGLHHLIWEVVDNAVDEAMAGFATRVDVKIHADGSVEVRDDGRGIPVEMHATGMPTIDVVMTQLHAGGKFDGETYAVSGGLHGVGVSVVNALSTRLEATVLRDGYEWFQYYDRSVPGKLKQGGETKETGTTIRFWADPEIFETTDYNFETVARRLQEMAFLNKGLTIELTDERVTAEEVVDDVVKDTAEAPKTADEKAAEATGPSKVKHRVFHYPGGLVDYVKHINRTKTPIQQSIIDFDGKGPGHEVEIAMQWNAGYSESVHTFANTINTHEGGTHEEGFRAALTSVVNRYAKDKKLLKDKDPNLTGDDIREGLAAVISVKVAEPQFEGQTKTKLGNTEVKSFVQKICNEQLQHWFEANPAEAKTVVNKAVSSAQARIAARKARELVRRKSATDIGGLPGKLADCRSTDPSKSELYVVEGDSAGGSAKSGRDSMFQAILPLRGKIINVEKARIDRVLKNTEVQSIITALGTGIHDEFDISKLRYHKIVLMADADVDGQHISTLLLTLLFRFMKPLVENGHIFLAQPPLYKLKWQRSEPEFAYSDRERDGLLEAGRAAGKKINVDDGIQRYKGLGEMDAKELWETTMDPSVRVLRQVTLDDAAAADELFSILMGEDVEARRSFITRNAKDVRFLDV

> <PDB ID(s) of Target Chain>
4BAE

> <UniProt (SwissProt) Recommended Name of Target Chain>
DNA gyrase subunit B

> <UniProt (SwissProt) Entry Name of Target Chain>
GYRB_MYCSM

> <UniProt (SwissProt) Primary ID of Target Chain>
P0C559

> <UniProt (SwissProt) Secondary ID(s) of Target Chain>
P48355,Q59555

> <UniProt (SwissProt) Alternative ID(s) of Target Chain>


> <UniProt (TrEMBL) Submitted Name of Target Chain>


> <UniProt (TrEMBL) Entry Name of Target Chain>


> <UniProt (TrEMBL) Primary ID of Target Chain>


> <UniProt (TrEMBL) Secondary ID(s) of Target Chain>


> <UniProt (TrEMBL) Alternative ID(s) of Target Chain>


$$$$

  Mrv0541 11231413392D          

 42 46  0  0  0  0            999 V2000
   12.7726   -6.5766    0.0000 C   0  0  0  0  0  0  0  0  0  0  0  0
   12.0466   -6.1751    0.0000 C   0  0  1  0  0  0  0  0  0  0  0  0
   11.3399   -6.6006    0.0000 C   0  0  2  0  0  0  0  0  0  0  0  0
   11.3528   -7.4294    0.0000 C   0  0  2  0  0  0  0  0  0  0  0  0
   12.0788   -7.8310    0.0000 C   0  0  1  0  0  0  0  0  0  0  0  0
   12.7918   -7.4037    0.0000 O   0  0  0  0  0  0  0  0  0  0  0  0
   12.0931   -8.6559    0.0000 O   0  0  0  0  0  0  0  0  0  0  0  0
   12.8128   -9.0672    0.0000 C   0  0  0  0  0  0  0  0  0  0  0  0
   12.8120   -9.8917    0.0000 C   0  0  0  0  0  0  0  0  0  0  0  0
   13.5277   -8.6530    0.0000 C   0  0  0  0  0  0  0  0  0  0  0  0
   14.2421   -9.0706    0.0000 C   0  0  0  0  0  0  0  0  0  0  0  0
   14.2402   -9.8953    0.0000 C   0  0  0  0  0  0  0  0  0  0  0  0
   13.5250  -10.3069    0.0000 C   0  0  0  0  0  0  0  0  0  0  0  0
   13.5238  -11.1275    0.0000 O   0  0  0  0  0  0  0  0  0  0  0  0
   14.2362  -11.5428    0.0000 C   0  0  0  0  0  0  0  0  0  0  0  0
   14.9514  -11.1313    0.0000 C   0  0  0  0  0  0  0  0  0  0  0  0
   14.9543  -10.3045    0.0000 C   0  0  0  0  0  0  0  0  0  0  0  0
   15.6688   -9.8920    0.0000 O   0  0  0  0  0  0  0  0  0  0  0  0
   14.2337  -12.3678    0.0000 O   0  0  0  0  0  0  0  0  0  0  0  0
   15.6648  -11.5456    0.0000 N   0  0  0  0  0  0  0  0  0  0  0  0
   15.6627  -12.3706    0.0000 C   0  0  0  0  0  0  0  0  0  0  0  0
   14.9473  -12.7813    0.0000 O   0  0  0  0  0  0  0  0  0  0  0  0
   16.3762  -12.7848    0.0000 C   0  0  0  0  0  0  0  0  0  0  0  0
   16.3712  -13.6091    0.0000 C   0  0  0  0  0  0  0  0  0  0  0  0
   17.0838  -14.0232    0.0000 C   0  0  0  0  0  0  0  0  0  0  0  0
   17.8004  -13.6125    0.0000 C   0  0  0  0  0  0  0  0  0  0  0  0
   17.7998  -12.7832    0.0000 C   0  0  0  0  0  0  0  0  0  0  0  0
   17.0866  -12.3728    0.0000 C   0  0  0  0  0  0  0  0  0  0  0  0
   13.6002   -6.5577    0.0000 C   0  0  0  0  0  0  0  0  0  0  0  0
   12.7617   -5.7535    0.0000 C   0  0  0  0  0  0  0  0  0  0  0  0
   12.0316   -5.3502    0.0000 O   0  0  0  0  0  0  0  0  0  0  0  0
   12.7383   -4.9247    0.0000 C   0  0  0  0  0  0  0  0  0  0  0  0
   10.6185   -6.2003    0.0000 O   0  0  0  0  0  0  0  0  0  0  0  0
   10.6046   -5.3754    0.0000 C   0  0  0  0  0  0  0  0  0  0  0  0
    9.8835   -4.9748    0.0000 C   0  0  0  0  0  0  0  0  0  0  0  0
   11.3120   -4.9508    0.0000 O   0  0  0  0  0  0  0  0  0  0  0  0
   10.6455   -7.8540    0.0000 O   0  0  0  0  0  0  0  0  0  0  0  0
    9.6477   -4.1812    0.0000 C   0  0  0  0  0  0  0  0  0  0  0  0
    8.8230   -4.1581    0.0000 C   0  0  0  0  0  0  0  0  0  0  0  0
    8.5463   -4.9353    0.0000 C   0  0  0  0  0  0  0  0  0  0  0  0
    9.1999   -5.4387    0.0000 N   0  0  0  0  0  0  0  0  0  0  0  0
    7.8283   -5.3396    0.0000 C   0  0  0  0  0  0  0  0  0  0  0  0
 16 20  1  0  0  0  0
  8 10  2  0  0  0  0
 20 21  1  0  0  0  0
  9 13  2  0  0  0  0
 21 22  2  0  0  0  0
 11 10  1  0  0  0  0
 21 23  1  0  0  0  0
 11 12  2  0  0  0  0
 23 24  2  0  0  0  0
  3  4  1  0  0  0  0
 24 25  1  0  0  0  0
 12 13  1  0  0  0  0
 25 26  2  0  0  0  0
  4  5  1  0  0  0  0
 26 27  1  0  0  0  0
  5  6  1  0  0  0  0
 27 28  2  0  0  0  0
 28 23  1  0  0  0  0
  1 29  1  0  0  0  0
  5  7  1  1  0  0  0
  1 30  1  0  0  0  0
  2  1  1  0  0  0  0
  2 31  1  1  0  0  0
  7  8  1  0  0  0  0
 31 32  1  0  0  0  0
 12 17  1  0  0  0  0
  3 33  1  6  0  0  0
 13 14  1  0  0  0  0
 33 34  1  0  0  0  0
 14 15  1  0  0  0  0
 34 35  1  0  0  0  0
 15 16  1  0  0  0  0
 34 36  2  0  0  0  0
 16 17  2  0  0  0  0
  4 37  1  6  0  0  0
 35 38  2  0  0  0  0
  8  9  1  0  0  0  0
 17 18  1  0  0  0  0
  1  6  1  0  0  0  0
 15 19  2  0  0  0  0
 38 39  1  0  0  0  0
 39 40  2  0  0  0  0
 40 41  1  0  0  0  0
 41 35  1  0  0  0  0
  3  2  1  0  0  0  0
 40 42  1  0  0  0  0
M  END
> <From> 
www.bindingDB.org

> <BindingDB Reactant_set_id>
50607674

> <Ligand InChI>
InChI=1S/C30H30N2O10/c1-15-10-13-19(31-15)27(36)41-24-23(34)29(42-30(2,3)25(24)38-4)39-17-11-12-18-20(14-17)40-28(37)21(22(18)33)32-26(35)16-8-6-5-7-9-16/h5-14,23-25,29,31,33-34H,1-4H3,(H,32,35)/t23-,24+,25-,29-/m1/s1

> <Ligand InChI Key>
QTCIMIHKLNNPCT-MNGFJMBLSA-N

> <BindingDB MonomerID>
50330304

> <BindingDB Ligand Name>
(3R,4S,5R,6R)-6-(3-benzamido-4-hydroxy-2-oxo-2H-chromen-7-yloxy)-5-hydroxy-3-methoxy-2,2-dimethyltetrahydro-2H-pyran-4-yl 5-methyl-1H-pyrrole-2-carboxylate::CHEMBL1275889

> <Target Name Assigned by Curator or DataSource>
DNA Gyrase Subunit B

> <Target Source Organism According to Curator or DataSource>
Escherichia coli

> <Ki (nM)>


> <IC50 (nM)>
 219

> <Kd (nM)>


> <EC50 (nM)>


> <kon (M-1-s-1)>


> <koff (s-1)>


> <pH>


> <Temp C>


> <Curation/DataSource>
ChEMBL

> <Article DOI>
10.1128/AAC.01235-07

> <PMID>
18347114

> <PubChem AID>


> <Patent Number>


> <Authors>
Anderle, C; Stieger, M; Burrell, M; Reinelt, S; Maxwell, A; Page, M; Heide, L

> <Institution>
Universit&#228;t T&#252;bingen

> <Link to Ligand in BindingDB>
http://www.bindingdb.org/bind/chemsearch/marvin/MolStructure.jsp?monomerid=50330304

> <Link to Ligand-Target Pair in BindingDB>
http://www.bindingdb.org/jsp/dbsearch/PrimarySearch_ki.jsp?energyterm=kJ/mole&tag=pol&polymerid=2630&target=DNA+Gyrase+Subunit+B&column=ki&startPg=0&Increment=50&submit=Search

> <Link to Ligand-Target Pair in BindingDB>
http://www.bindingdb.org/jsp/dbsearch/PrimarySearch_ki.jsp?energyterm=kJ/mole&tag=r21&monomerid=50330304&enzyme=DNA+Gyrase+Subunit+B&column=ki&startPg=0&Increment=50&submit=Search

> <Ligand HET ID in PDB>


> <PDB ID(s) for Ligand-Target Complex>


> <PubChem CID>
54729437

> <PubChem SID>
123109419

> <ChEBI ID of Ligand>


> <ChEMBL ID of Ligand>
CHEMBL1275889

> <DrugBank ID of Ligand>


> <IUPHAR_GRAC ID of Ligand>


> <KEGG ID of Ligand>


> <ZINC ID of Ligand>
ZINC64454180

> <Number of Protein Chains in Target (>1 implies a multichain complex)>
1

> <BindingDB Target Chain Sequence>
MSNSYDSSSIKVLKGLDAVRKRPGMYIGDTDDGTGLHHMVFEVVDNAIDEALAGHCKEII
VTIHADNSVSVQDDGRGIPTGIHPEEGVSAAEVIMTVLHAGGKFDDNSYKVSGGLHGVGV
SVVNALSQKLELVIQREGKIHRQIYEHGVPQAPLAVTGETEKTGTMVRFWPSLETFTNVT
EFEYEILAKRLRELSFLNSGVSIRLRDKRDGKEDHFHYEGGIKAFVEYLNKNKTPIHPNI
FYFSTEKDGIGVEVALQWNDGFQENIYCFTNNIPQRDGGTHLAGFRAAMTRTLNAYMDKE
GYSKKAKVSATGDDAREGLIAVVSVKVPDPKFSSQTKDKLVSSEVKSAVEQQMNELLAEY
LLENPTDAKIVVGKIIDAARAREAARRAREMTRRKGALDLAGLPGKLADCQERDPALSEL
YLVEGDSAGGSAKQGRNRKNQAILPLKGKILNVEKARFDKMLSSQEVATLITALGCGIGR
DEYNPDKLRYHSIIIMTDADVDGSHIRTLLLTFFYRQMPEIVERGHVYIAQPPLYKVKKG
KQEQYIKDDEAMDQYQISIALDGATLHTNASAPALAGEALEKLVSEYNATQKMINRMERR
YPKAMLKELIYQPTLTEADLSDEQTVTRWVNALVSELNDKEQHGSQWKFDVHTNAEQNLF
EPIVRVRTHGVDTDYPLDHEFITGGEYRRICTLGEKLRGLLEEDAFIERGERRQPVASFE
QALDWLVKESRRGLSIQRYKGLGEMNPEQLWETTMDPESRRMLRVTVKDAIAADQLFTTL
MGDAVEPRRAFIEENALKAANIDI

> <PDB ID(s) of Target Chain>
1KZN,3G7E,3NUH,4DUH,4HYP,4KFG,4PRV,4PRX,4PU9,4WUB,4WUC,4WUD,4XTJ,4ZVI,5L3J,5MMN,5MMO,5MMP,5Z4H,5Z4O,5Z9B,5Z9E,5Z9F,5Z9L,5Z9M,5Z9N,5Z9Q,6ENG,6F86,6F8J,6F94,6F96

> <UniProt (SwissProt) Recommended Name of Target Chain>
DNA gyrase subunit B

> <UniProt (SwissProt) Entry Name of Target Chain>
GYRB_ECOLI

> <UniProt (SwissProt) Primary ID of Target Chain>
P0AES6

> <UniProt (SwissProt) Secondary ID(s) of Target Chain>
O08438,P06982,Q2M811

> <UniProt (SwissProt) Alternative ID(s) of Target Chain>


> <UniProt (TrEMBL) Submitted Name of Target Chain>


> <UniProt (TrEMBL) Entry Name of Target Chain>


> <UniProt (TrEMBL) Primary ID of Target Chain>


> <UniProt (TrEMBL) Secondary ID(s) of Target Chain>


> <UniProt (TrEMBL) Alternative ID(s) of Target Chain>


$$$$

  SciTegic12211709222D

 27 29  0  0  0  0            999 V2000
   10.3748   -8.8574    0.0000 O   0  0
    9.9662   -9.5665    0.0000 C   0  0
    9.1449   -9.5665    0.0000 C   0  0
    8.6606  -10.2298    0.0000 C   0  0
    7.8834   -9.9751    0.0000 C   0  0
    7.2201  -10.4594    0.0000 Cl  0  0
    7.8834   -9.1579    0.0000 C   0  0
    7.2201   -8.6736    0.0000 Cl  0  0
    8.6606   -8.9032    0.0000 N   0  0
   10.3748  -10.2756    0.0000 N   0  0
   11.1961  -10.2756    0.0000 C   0  0
   11.6763   -9.6123    0.0000 N   0  0
   12.4535   -9.8670    0.0000 C   0  0
   13.1667   -9.4584    0.0000 C   0  0
   13.8758   -9.8670    0.0000 C   0  0
   13.8758  -10.6883    0.0000 C   0  0
   14.5849  -11.0969    0.0000 N   0  0
   15.2940  -10.6883    0.0000 C   0  0
   15.2940   -9.8670    0.0000 C   0  0
   16.0072   -9.4584    0.0000 C   0  0
   16.7163   -9.8670    0.0000 O   0  0
   16.7163  -10.6883    0.0000 C   0  0
   16.0072   -8.6371    0.0000 O   0  0
   16.0072  -11.0969    0.0000 O   0  0
   13.1667  -11.0969    0.0000 C   0  0
   12.4535  -10.6883    0.0000 C   0  0
   11.6763  -10.9389    0.0000 S   0  0
  1  2  2  0
  2  3  1  0
  3  4  2  0
  4  5  1  0
  5  6  1  0
  5  7  2  0
  7  8  1  0
  7  9  1  0
  3  9  1  0
  2 10  1  0
 10 11  1  0
 11 12  2  0
 12 13  1  0
 13 14  2  0
 14 15  1  0
 15 16  2  0
 16 17  1  0
 17 18  1  0
 18 19  1  0
 19 20  1  0
 20 21  1  0
 21 22  1  0
 20 23  2  0
 18 24  2  0
 16 25  1  0
 25 26  2  0
 13 26  1  0
 26 27  1  0
 11 27  1  0
M  END
> <From> 
www.bindingDB.org

> <BindingDB Reactant_set_id>
50524118

> <Ligand InChI>
InChI=1S/C16H12Cl2N4O4S/c1-26-13(24)6-12(23)19-7-2-3-9-11(4-7)27-16(21-9)22-15(25)10-5-8(17)14(18)20-10/h2-5,20H,6H2,1H3,(H,19,23)(H,21,22,25)

> <Ligand InChI Key>
FEXFEIAVWCZPHI-UHFFFAOYSA-N

> <BindingDB MonomerID>
50198298

> <BindingDB Ligand Name>
CHEMBL3917447

> <Target Name Assigned by Curator or DataSource>
DNA Gyrase Subunit B

> <Target Source Organism According to Curator or DataSource>
Escherichia coli

> <Ki (nM)>


> <IC50 (nM)>
 220

> <Kd (nM)>


> <EC50 (nM)>


> <kon (M-1-s-1)>


> <koff (s-1)>


> <pH>


> <Temp C>


> <Curation/DataSource>
ChEMBL

> <Article DOI>
10.1021/acs.jmedchem.6b00864

> <PMID>
27541007

> <PubChem AID>


> <Patent Number>


> <Authors>
Gjorgjieva, M; Tomaic, T; Barancokova, M; Katsamakas, S; Ila, J; Tammela, P; Peterlin Maic, L; Kikelj, D

> <Institution>
University of Ljubljana

> <Link to Ligand in BindingDB>
http://www.bindingdb.org/bind/chemsearch/marvin/MolStructure.jsp?monomerid=50198298

> <Link to Ligand-Target Pair in BindingDB>
http://www.bindingdb.org/jsp/dbsearch/PrimarySearch_ki.jsp?energyterm=kJ/mole&tag=pol&polymerid=2630&target=DNA+Gyrase+Subunit+B&column=ki&startPg=0&Increment=50&submit=Search

> <Link to Ligand-Target Pair in BindingDB>
http://www.bindingdb.org/jsp/dbsearch/PrimarySearch_ki.jsp?energyterm=kJ/mole&tag=r21&monomerid=50198298&enzyme=DNA+Gyrase+Subunit+B&column=ki&startPg=0&Increment=50&submit=Search

> <Ligand HET ID in PDB>


> <PDB ID(s) for Ligand-Target Complex>


> <PubChem CID>
134142193

> <PubChem SID>
375978196

> <ChEBI ID of Ligand>


> <ChEMBL ID of Ligand>


> <DrugBank ID of Ligand>


> <IUPHAR_GRAC ID of Ligand>


> <KEGG ID of Ligand>


> <ZINC ID of Ligand>


> <Number of Protein Chains in Target (>1 implies a multichain complex)>
1

> <BindingDB Target Chain Sequence>
MSNSYDSSSIKVLKGLDAVRKRPGMYIGDTDDGTGLHHMVFEVVDNAIDEALAGHCKEII
VTIHADNSVSVQDDGRGIPTGIHPEEGVSAAEVIMTVLHAGGKFDDNSYKVSGGLHGVGV
SVVNALSQKLELVIQREGKIHRQIYEHGVPQAPLAVTGETEKTGTMVRFWPSLETFTNVT
EFEYEILAKRLRELSFLNSGVSIRLRDKRDGKEDHFHYEGGIKAFVEYLNKNKTPIHPNI
FYFSTEKDGIGVEVALQWNDGFQENIYCFTNNIPQRDGGTHLAGFRAAMTRTLNAYMDKE
GYSKKAKVSATGDDAREGLIAVVSVKVPDPKFSSQTKDKLVSSEVKSAVEQQMNELLAEY
LLENPTDAKIVVGKIIDAARAREAARRAREMTRRKGALDLAGLPGKLADCQERDPALSEL
YLVEGDSAGGSAKQGRNRKNQAILPLKGKILNVEKARFDKMLSSQEVATLITALGCGIGR
DEYNPDKLRYHSIIIMTDADVDGSHIRTLLLTFFYRQMPEIVERGHVYIAQPPLYKVKKG
KQEQYIKDDEAMDQYQISIALDGATLHTNASAPALAGEALEKLVSEYNATQKMINRMERR
YPKAMLKELIYQPTLTEADLSDEQTVTRWVNALVSELNDKEQHGSQWKFDVHTNAEQNLF
EPIVRVRTHGVDTDYPLDHEFITGGEYRRICTLGEKLRGLLEEDAFIERGERRQPVASFE
QALDWLVKESRRGLSIQRYKGLGEMNPEQLWETTMDPESRRMLRVTVKDAIAADQLFTTL
MGDAVEPRRAFIEENALKAANIDI

> <PDB ID(s) of Target Chain>
1KZN,3G7E,3NUH,4DUH,4HYP,4KFG,4PRV,4PRX,4PU9,4WUB,4WUC,4WUD,4XTJ,4ZVI,5L3J,5MMN,5MMO,5MMP,5Z4H,5Z4O,5Z9B,5Z9E,5Z9F,5Z9L,5Z9M,5Z9N,5Z9Q,6ENG,6F86,6F8J,6F94,6F96

> <UniProt (SwissProt) Recommended Name of Target Chain>
DNA gyrase subunit B

> <UniProt (SwissProt) Entry Name of Target Chain>
GYRB_ECOLI

> <UniProt (SwissProt) Primary ID of Target Chain>
P0AES6

> <UniProt (SwissProt) Secondary ID(s) of Target Chain>
O08438,P06982,Q2M811

> <UniProt (SwissProt) Alternative ID(s) of Target Chain>


> <UniProt (TrEMBL) Submitted Name of Target Chain>


> <UniProt (TrEMBL) Entry Name of Target Chain>


> <UniProt (TrEMBL) Primary ID of Target Chain>


> <UniProt (TrEMBL) Secondary ID(s) of Target Chain>


> <UniProt (TrEMBL) Alternative ID(s) of Target Chain>


$$$$

  Mrv0541 11231413392D          

 45 49  0  0  0  0            999 V2000
   -0.0515  -20.5141    0.0000 C   0  0  0  0  0  0  0  0  0  0  0  0
   -0.7774  -20.1126    0.0000 C   0  0  1  0  0  0  0  0  0  0  0  0
   -1.4841  -20.5381    0.0000 C   0  0  2  0  0  0  0  0  0  0  0  0
   -1.4712  -21.3670    0.0000 C   0  0  2  0  0  0  0  0  0  0  0  0
   -0.7453  -21.7685    0.0000 C   0  0  1  0  0  0  0  0  0  0  0  0
   -0.0323  -21.3412    0.0000 O   0  0  0  0  0  0  0  0  0  0  0  0
   -0.7310  -22.5934    0.0000 O   0  0  0  0  0  0  0  0  0  0  0  0
   -0.0113  -23.0047    0.0000 C   0  0  0  0  0  0  0  0  0  0  0  0
   -0.0120  -23.8292    0.0000 C   0  0  0  0  0  0  0  0  0  0  0  0
    0.7035  -22.5904    0.0000 C   0  0  0  0  0  0  0  0  0  0  0  0
    1.4181  -23.0081    0.0000 C   0  0  0  0  0  0  0  0  0  0  0  0
    1.4162  -23.8328    0.0000 C   0  0  0  0  0  0  0  0  0  0  0  0
    0.7009  -24.2444    0.0000 C   0  0  0  0  0  0  0  0  0  0  0  0
    0.6997  -25.0650    0.0000 O   0  0  0  0  0  0  0  0  0  0  0  0
    1.4120  -25.4804    0.0000 C   0  0  0  0  0  0  0  0  0  0  0  0
    2.1274  -25.0688    0.0000 C   0  0  0  0  0  0  0  0  0  0  0  0
    2.1302  -24.2419    0.0000 C   0  0  0  0  0  0  0  0  0  0  0  0
    2.8448  -23.8295    0.0000 O   0  0  0  0  0  0  0  0  0  0  0  0
    1.4097  -26.3053    0.0000 O   0  0  0  0  0  0  0  0  0  0  0  0
    2.8408  -25.4830    0.0000 N   0  0  0  0  0  0  0  0  0  0  0  0
    2.8387  -26.3080    0.0000 C   0  0  0  0  0  0  0  0  0  0  0  0
    2.1232  -26.7187    0.0000 O   0  0  0  0  0  0  0  0  0  0  0  0
    3.5522  -26.7224    0.0000 C   0  0  0  0  0  0  0  0  0  0  0  0
    3.5472  -27.5465    0.0000 C   0  0  0  0  0  0  0  0  0  0  0  0
    4.2598  -27.9607    0.0000 C   0  0  0  0  0  0  0  0  0  0  0  0
    4.9762  -27.5499    0.0000 C   0  0  0  0  0  0  0  0  0  0  0  0
    4.9756  -26.7207    0.0000 C   0  0  0  0  0  0  0  0  0  0  0  0
    4.2625  -26.3102    0.0000 C   0  0  0  0  0  0  0  0  0  0  0  0
    5.6902  -27.9633    0.0000 O   0  0  0  0  0  0  0  0  0  0  0  0
    5.6897  -26.3075    0.0000 C   0  0  0  0  0  0  0  0  0  0  0  0
    0.7760  -20.4953    0.0000 C   0  0  0  0  0  0  0  0  0  0  0  0
   -0.0623  -19.6911    0.0000 C   0  0  0  0  0  0  0  0  0  0  0  0
   -0.7924  -19.2877    0.0000 O   0  0  0  0  0  0  0  0  0  0  0  0
   -0.0857  -18.8623    0.0000 C   0  0  0  0  0  0  0  0  0  0  0  0
   -2.2055  -20.1378    0.0000 O   0  0  0  0  0  0  0  0  0  0  0  0
   -2.2194  -19.3129    0.0000 C   0  0  0  0  0  0  0  0  0  0  0  0
   -2.9405  -18.9123    0.0000 C   0  0  0  0  0  0  0  0  0  0  0  0
   -1.5121  -18.8885    0.0000 O   0  0  0  0  0  0  0  0  0  0  0  0
   -2.1786  -21.7915    0.0000 O   0  0  0  0  0  0  0  0  0  0  0  0
    4.2572  -28.7857    0.0000 C   0  0  0  0  0  0  0  0  0  0  0  0
   -3.1763  -18.1188    0.0000 C   0  0  0  0  0  0  0  0  0  0  0  0
   -4.0009  -18.0957    0.0000 C   0  0  0  0  0  0  0  0  0  0  0  0
   -4.2777  -18.8729    0.0000 C   0  0  0  0  0  0  0  0  0  0  0  0
   -3.6241  -19.3762    0.0000 N   0  0  0  0  0  0  0  0  0  0  0  0
   -4.9958  -19.2771    0.0000 C   0  0  0  0  0  0  0  0  0  0  0  0
  9 13  2  0  0  0  0
 21 22  2  0  0  0  0
 11 10  1  0  0  0  0
 21 23  1  0  0  0  0
 11 12  2  0  0  0  0
 23 24  2  0  0  0  0
  3  4  1  0  0  0  0
 24 25  1  0  0  0  0
 12 13  1  0  0  0  0
 25 26  2  0  0  0  0
  4  5  1  0  0  0  0
 26 27  1  0  0  0  0
  5  6  1  0  0  0  0
 27 28  2  0  0  0  0
 28 23  1  0  0  0  0
 26 29  1  0  0  0  0
  5  7  1  1  0  0  0
 27 30  1  0  0  0  0
  2  1  1  0  0  0  0
  1 31  1  0  0  0  0
  7  8  1  0  0  0  0
  1 32  1  0  0  0  0
 12 17  1  0  0  0  0
  2 33  1  1  0  0  0
 13 14  1  0  0  0  0
 33 34  1  0  0  0  0
 14 15  1  0  0  0  0
  3 35  1  6  0  0  0
 15 16  1  0  0  0  0
 35 36  1  0  0  0  0
 16 17  2  0  0  0  0
 36 37  1  0  0  0  0
  8  9  1  0  0  0  0
 36 38  2  0  0  0  0
 17 18  1  0  0  0  0
  4 39  1  6  0  0  0
  1  6  1  0  0  0  0
 25 40  1  0  0  0  0
 37 41  2  0  0  0  0
 15 19  2  0  0  0  0
  3  2  1  0  0  0  0
 16 20  1  0  0  0  0
  8 10  2  0  0  0  0
 41 42  1  0  0  0  0
 42 43  2  0  0  0  0
 43 44  1  0  0  0  0
 44 37  1  0  0  0  0
 20 21  1  0  0  0  0
 43 45  1  0  0  0  0
M  END
> <From> 
www.bindingDB.org

> <BindingDB Reactant_set_id>
50607673

> <Ligand InChI>
InChI=1S/C32H34N2O11/c1-14-11-17(12-15(2)23(14)35)28(38)34-22-24(36)19-9-8-18(13-21(19)43-30(22)40)42-31-25(37)26(27(41-6)32(4,5)45-31)44-29(39)20-10-7-16(3)33-20/h7-13,25-27,31,33,35-37H,1-6H3,(H,34,38)/t25-,26+,27-,31-/m1/s1

> <Ligand InChI Key>
HCJJVFGHYYFOIL-KUYWTNKVSA-N

> <BindingDB MonomerID>
50330303

> <BindingDB Ligand Name>
(3R,4S,5R,6R)-5-hydroxy-6-(4-hydroxy-3-(4-hydroxy-3,5-dimethylbenzamido)-2-oxo-2H-chromen-7-yloxy)-3-methoxy-2,2-dimethyltetrahydro-2H-pyran-4-yl 5-methyl-1H-pyrrole-2-carboxylate::CHEMBL1275890

> <Target Name Assigned by Curator or DataSource>
DNA Gyrase Subunit B

> <Target Source Organism According to Curator or DataSource>
Escherichia coli

> <Ki (nM)>


> <IC50 (nM)>
 229

> <Kd (nM)>


> <EC50 (nM)>


> <kon (M-1-s-1)>


> <koff (s-1)>


> <pH>


> <Temp C>


> <Curation/DataSource>
ChEMBL

> <Article DOI>
10.1128/AAC.01235-07

> <PMID>
18347114

> <PubChem AID>


> <Patent Number>


> <Authors>
Anderle, C; Stieger, M; Burrell, M; Reinelt, S; Maxwell, A; Page, M; Heide, L

> <Institution>
Universit&#228;t T&#252;bingen

> <Link to Ligand in BindingDB>
http://www.bindingdb.org/bind/chemsearch/marvin/MolStructure.jsp?monomerid=50330303

> <Link to Ligand-Target Pair in BindingDB>
http://www.bindingdb.org/jsp/dbsearch/PrimarySearch_ki.jsp?energyterm=kJ/mole&tag=pol&polymerid=2630&target=DNA+Gyrase+Subunit+B&column=ki&startPg=0&Increment=50&submit=Search

> <Link to Ligand-Target Pair in BindingDB>
http://www.bindingdb.org/jsp/dbsearch/PrimarySearch_ki.jsp?energyterm=kJ/mole&tag=r21&monomerid=50330303&enzyme=DNA+Gyrase+Subunit+B&column=ki&startPg=0&Increment=50&submit=Search

> <Ligand HET ID in PDB>


> <PDB ID(s) for Ligand-Target Complex>


> <PubChem CID>
54732410

> <PubChem SID>
123109418

> <ChEBI ID of Ligand>


> <ChEMBL ID of Ligand>
CHEMBL1275890

> <DrugBank ID of Ligand>


> <IUPHAR_GRAC ID of Ligand>


> <KEGG ID of Ligand>


> <ZINC ID of Ligand>
ZINC64454182

> <Number of Protein Chains in Target (>1 implies a multichain complex)>
1

> <BindingDB Target Chain Sequence>
MSNSYDSSSIKVLKGLDAVRKRPGMYIGDTDDGTGLHHMVFEVVDNAIDEALAGHCKEII
VTIHADNSVSVQDDGRGIPTGIHPEEGVSAAEVIMTVLHAGGKFDDNSYKVSGGLHGVGV
SVVNALSQKLELVIQREGKIHRQIYEHGVPQAPLAVTGETEKTGTMVRFWPSLETFTNVT
EFEYEILAKRLRELSFLNSGVSIRLRDKRDGKEDHFHYEGGIKAFVEYLNKNKTPIHPNI
FYFSTEKDGIGVEVALQWNDGFQENIYCFTNNIPQRDGGTHLAGFRAAMTRTLNAYMDKE
GYSKKAKVSATGDDAREGLIAVVSVKVPDPKFSSQTKDKLVSSEVKSAVEQQMNELLAEY
LLENPTDAKIVVGKIIDAARAREAARRAREMTRRKGALDLAGLPGKLADCQERDPALSEL
YLVEGDSAGGSAKQGRNRKNQAILPLKGKILNVEKARFDKMLSSQEVATLITALGCGIGR
DEYNPDKLRYHSIIIMTDADVDGSHIRTLLLTFFYRQMPEIVERGHVYIAQPPLYKVKKG
KQEQYIKDDEAMDQYQISIALDGATLHTNASAPALAGEALEKLVSEYNATQKMINRMERR
YPKAMLKELIYQPTLTEADLSDEQTVTRWVNALVSELNDKEQHGSQWKFDVHTNAEQNLF
EPIVRVRTHGVDTDYPLDHEFITGGEYRRICTLGEKLRGLLEEDAFIERGERRQPVASFE
QALDWLVKESRRGLSIQRYKGLGEMNPEQLWETTMDPESRRMLRVTVKDAIAADQLFTTL
MGDAVEPRRAFIEENALKAANIDI

> <PDB ID(s) of Target Chain>
1KZN,3G7E,3NUH,4DUH,4HYP,4KFG,4PRV,4PRX,4PU9,4WUB,4WUC,4WUD,4XTJ,4ZVI,5L3J,5MMN,5MMO,5MMP,5Z4H,5Z4O,5Z9B,5Z9E,5Z9F,5Z9L,5Z9M,5Z9N,5Z9Q,6ENG,6F86,6F8J,6F94,6F96

> <UniProt (SwissProt) Recommended Name of Target Chain>
DNA gyrase subunit B

> <UniProt (SwissProt) Entry Name of Target Chain>
GYRB_ECOLI

> <UniProt (SwissProt) Primary ID of Target Chain>
P0AES6

> <UniProt (SwissProt) Secondary ID(s) of Target Chain>
O08438,P06982,Q2M811

> <UniProt (SwissProt) Alternative ID(s) of Target Chain>


> <UniProt (TrEMBL) Submitted Name of Target Chain>


> <UniProt (TrEMBL) Entry Name of Target Chain>


> <UniProt (TrEMBL) Primary ID of Target Chain>


> <UniProt (TrEMBL) Secondary ID(s) of Target Chain>


> <UniProt (TrEMBL) Alternative ID(s) of Target Chain>


$$$$

  Mrv0541 11231422262D          

 22 24  0  0  0  0            999 V2000
   -3.6488  -14.3035    0.0000 N   0  0  0  0  0  0  0  0  0  0  0  0
   -4.3219  -13.8168    0.0000 C   0  0  0  0  0  0  0  0  0  0  0  0
   -4.0652  -13.0288    0.0000 C   0  0  0  0  0  0  0  0  0  0  0  0
   -3.2363  -13.0288    0.0000 C   0  0  0  0  0  0  0  0  0  0  0  0
   -2.9800  -13.8173    0.0000 C   0  0  0  0  0  0  0  0  0  0  0  0
   -5.1060  -14.0724    0.0000 C   0  0  0  0  0  0  0  0  0  0  0  0
   -2.2632  -14.2256    0.0000 C   0  0  0  0  0  0  0  0  0  0  0  0
   -2.2583  -15.0503    0.0000 O   0  0  0  0  0  0  0  0  0  0  0  0
   -1.5514  -13.8089    0.0000 N   0  0  0  0  0  0  0  0  0  0  0  0
   -0.8348  -14.2172    0.0000 C   0  0  0  0  0  0  0  0  0  0  0  0
   -0.8337  -15.0440    0.0000 C   0  0  0  0  0  0  0  0  0  0  0  0
   -0.1212  -15.4523    0.0000 C   0  0  0  0  0  0  0  0  0  0  0  0
    0.5930  -15.0391    0.0000 N   0  0  0  0  0  0  0  0  0  0  0  0
    0.5901  -14.2134    0.0000 C   0  0  0  0  0  0  0  0  0  0  0  0
   -0.1270  -13.8006    0.0000 C   0  0  0  0  0  0  0  0  0  0  0  0
    1.3085  -15.4500    0.0000 C   0  0  0  0  0  0  0  0  0  0  0  0
   -4.5499  -12.3615    0.0000 Cl  0  0  0  0  0  0  0  0  0  0  0  0
   -2.7518  -12.3616    0.0000 Cl  0  0  0  0  0  0  0  0  0  0  0  0
    1.5708  -16.2314    0.0000 O   0  0  0  0  0  0  0  0  0  0  0  0
    2.3955  -16.2243    0.0000 C   0  0  0  0  0  0  0  0  0  0  0  0
    2.6437  -15.4378    0.0000 N   0  0  0  0  0  0  0  0  0  0  0  0
    1.9724  -14.9588    0.0000 N   0  0  0  0  0  0  0  0  0  0  0  0
  5  1  1  0  0  0  0
  2  3  2  0  0  0  0
  2  6  1  0  0  0  0
  5  7  1  0  0  0  0
 10 15  1  0  0  0  0
 11 12  1  0  0  0  0
 12 13  1  0  0  0  0
 13 14  1  0  0  0  0
 14 15  1  0  0  0  0
  1  2  1  0  0  0  0
 13 16  1  0  0  0  0
  7  8  2  0  0  0  0
  3 17  1  0  0  0  0
  3  4  1  0  0  0  0
  4 18  1  0  0  0  0
 16 19  1  0  0  0  0
  7  9  1  0  0  0  0
  4  5  2  0  0  0  0
  9 10  1  0  0  0  0
 10 11  1  0  0  0  0
 19 20  1  0  0  0  0
 20 21  2  0  0  0  0
 21 22  1  0  0  0  0
 22 16  2  0  0  0  0
M  END
> <From> 
www.bindingDB.org

> <BindingDB Reactant_set_id>
50705129

> <Ligand InChI>
InChI=1S/C13H15Cl2N5O2/c1-7-9(14)10(15)11(17-7)12(21)18-8-2-4-20(5-3-8)13-19-16-6-22-13/h6,8,17H,2-5H2,1H3,(H,18,21)

> <Ligand InChI Key>
PHYZMOOYLSISJA-UHFFFAOYSA-N

> <BindingDB MonomerID>
50358851

> <BindingDB Ligand Name>
CHEMBL1923436

> <Target Name Assigned by Curator or DataSource>
DNA Gyrase Subunit B

> <Target Source Organism According to Curator or DataSource>
Staphylococcus aureus

> <Ki (nM)>


> <IC50 (nM)>
 230

> <Kd (nM)>


> <EC50 (nM)>


> <kon (M-1-s-1)>


> <koff (s-1)>


> <pH>


> <Temp C>


> <Curation/DataSource>
ChEMBL

> <Article DOI>
10.1016/j.bmcl.2011.10.010

> <PMID>
22041057

> <PubChem AID>


> <Patent Number>


> <Authors>
Sherer, BA; Hull, K; Green, O; Basarab, G; Hauck, S; Hill, P; Loch, JT; Mullen, G; Bist, S; Bryant, J; Boriack-Sjodin, A; Read, J; DeGrace, N; Uria-Nickelsen, M; Illingworth, RN; Eakin, AE

> <Institution>
AstraZeneca R&amp;D Boston

> <Link to Ligand in BindingDB>
http://www.bindingdb.org/bind/chemsearch/marvin/MolStructure.jsp?monomerid=50358851

> <Link to Ligand-Target Pair in BindingDB>
http://www.bindingdb.org/jsp/dbsearch/PrimarySearch_ki.jsp?energyterm=kJ/mole&tag=pol&polymerid=2626&target=DNA+Gyrase+Subunit+B&column=ki&startPg=0&Increment=50&submit=Search

> <Link to Ligand-Target Pair in BindingDB>
http://www.bindingdb.org/jsp/dbsearch/PrimarySearch_ki.jsp?energyterm=kJ/mole&tag=r21&monomerid=50358851&enzyme=DNA+Gyrase+Subunit+B&column=ki&startPg=0&Increment=50&submit=Search

> <Ligand HET ID in PDB>


> <PDB ID(s) for Ligand-Target Complex>


> <PubChem CID>
57392539

> <PubChem SID>
136962875

> <ChEBI ID of Ligand>


> <ChEMBL ID of Ligand>
CHEMBL1923436

> <DrugBank ID of Ligand>


> <IUPHAR_GRAC ID of Ligand>


> <KEGG ID of Ligand>


> <ZINC ID of Ligand>
ZINC73158282

> <Number of Protein Chains in Target (>1 implies a multichain complex)>
1

> <BindingDB Target Chain Sequence>
MVTALSDVNNTDNYGAGQIQVLEGLEAVRKRPGMYIGSTSERGLHHLVWEIVDNSIDEALAGYANQIEVVIEKDNWIKVTDNGRGIPVDIQEKMGRPAVEVILTVLHAGGKFGGGGYKVSGGLHGVGSSVVNALSQDLEVYVHRNETIYHQAYKKGVPQFDLKEVGTTDKTGTVIRFKADGEIFTETTVYNYETLQQRIRELAFLNKGIQITLRDERDEENVREDSYHYEGGIKSYVELLNENKEPIHDEPIYIHQSKDDIEVEIAIQYNSGYATNLLTYANNIHTYEGGTHEDGFKRALTRVLNSYGLSSKIMKEEKDRLSGEDTREGMTAIISIKHGDPQFEGQTKTKLGNSEVRQVVDKLFSEHFERFLYENPQVARTVVEKGIMAARARVAAKKAREVTRRKSALDVASLPGKLADCSSKSPEECEIFLVEGDSAGGSTKSGRDSRTQAILPLRGKILNVEKARLDRILNNNEIRQMITAFGTGIGGDFDLAKARYHKIVIMTDADVDGAHIRTLLLTFFYRFMRPLIEAGYVYIAQPPLYKLTQGKQKYYVYNDRELDKLKSELNPTPKWSIARYKGLGEMNADQLWETTMNPEHRALLQVKLEDAIEADQTFEMLMGDVVENRRQFIEDNAVYANLDF

> <PDB ID(s) of Target Chain>


> <UniProt (SwissProt) Recommended Name of Target Chain>
DNA gyrase subunit B

> <UniProt (SwissProt) Entry Name of Target Chain>
GYRB_STAAU

> <UniProt (SwissProt) Primary ID of Target Chain>
P0A0K8

> <UniProt (SwissProt) Secondary ID(s) of Target Chain>
P20832

> <UniProt (SwissProt) Alternative ID(s) of Target Chain>


> <UniProt (TrEMBL) Submitted Name of Target Chain>


> <UniProt (TrEMBL) Entry Name of Target Chain>


> <UniProt (TrEMBL) Primary ID of Target Chain>


> <UniProt (TrEMBL) Secondary ID(s) of Target Chain>


> <UniProt (TrEMBL) Alternative ID(s) of Target Chain>


$$$$

  SciTegic12201719182D

 27 29  0  0  0  0            999 V2000
   10.2376   -5.9493    0.0000 O   0  0
   10.6462   -6.6584    0.0000 C   0  0
   11.4634   -6.6584    0.0000 C   0  0
   11.8720   -5.9493    0.0000 C   0  0
   12.6892   -5.9493    0.0000 O   0  0
   13.0978   -6.6584    0.0000 C   0  0
   11.4634   -5.2444    0.0000 O   0  0
   10.2376   -7.3675    0.0000 N   0  0
    9.4204   -7.3675    0.0000 C   0  0
    8.9362   -6.7042    0.0000 N   0  0
    8.1631   -6.9589    0.0000 C   0  0
    7.4540   -6.5503    0.0000 C   0  0
    6.7449   -6.9589    0.0000 C   0  0
    6.7449   -7.7761    0.0000 C   0  0
    6.0399   -8.1847    0.0000 N   0  0
    5.3308   -7.7761    0.0000 C   0  0
    5.3308   -6.9589    0.0000 C   0  0
    5.9900   -6.4788    0.0000 C   0  0
    5.7394   -5.7015    0.0000 C   0  0
    6.2196   -5.0383    0.0000 Br  0  0
    4.9222   -5.7015    0.0000 C   0  0
    4.4421   -5.0383    0.0000 Br  0  0
    4.6717   -6.4788    0.0000 N   0  0
    4.6217   -8.1847    0.0000 O   0  0
    7.4540   -8.1847    0.0000 C   0  0
    8.1631   -7.7761    0.0000 C   0  0
    8.9362   -8.0266    0.0000 S   0  0
  1  2  2  0
  2  3  1  0
  3  4  1  0
  4  5  1  0
  5  6  1  0
  4  7  2  0
  2  8  1  0
  8  9  1  0
  9 10  2  0
 10 11  1  0
 11 12  2  0
 12 13  1  0
 13 14  2  0
 14 15  1  0
 15 16  1  0
 16 17  1  0
 17 18  2  0
 18 19  1  0
 19 20  1  0
 19 21  2  0
 21 22  1  0
 21 23  1  0
 17 23  1  0
 16 24  2  0
 14 25  1  0
 25 26  2  0
 11 26  1  0
 26 27  1  0
  9 27  1  0
M  END
> <From> 
www.bindingDB.org

> <BindingDB Reactant_set_id>
50524124

> <Ligand InChI>
InChI=1S/C16H12Br2N4O4S/c1-26-13(24)6-12(23)22-16-21-9-3-2-7(4-11(9)27-16)19-15(25)10-5-8(17)14(18)20-10/h2-5,20H,6H2,1H3,(H,19,25)(H,21,22,23)

> <Ligand InChI Key>
AFQMMWARZCTCIV-UHFFFAOYSA-N

> <BindingDB MonomerID>
50198319

> <BindingDB Ligand Name>
CHEMBL3896465

> <Target Name Assigned by Curator or DataSource>
DNA Gyrase Subunit B

> <Target Source Organism According to Curator or DataSource>
Escherichia coli

> <Ki (nM)>


> <IC50 (nM)>
 240

> <Kd (nM)>


> <EC50 (nM)>


> <kon (M-1-s-1)>


> <koff (s-1)>


> <pH>


> <Temp C>


> <Curation/DataSource>
ChEMBL

> <Article DOI>
10.1021/acs.jmedchem.6b00864

> <PMID>
27541007

> <PubChem AID>


> <Patent Number>


> <Authors>
Gjorgjieva, M; Tomaic, T; Barancokova, M; Katsamakas, S; Ila, J; Tammela, P; Peterlin Maic, L; Kikelj, D

> <Institution>
University of Ljubljana

> <Link to Ligand in BindingDB>
http://www.bindingdb.org/bind/chemsearch/marvin/MolStructure.jsp?monomerid=50198319

> <Link to Ligand-Target Pair in BindingDB>
http://www.bindingdb.org/jsp/dbsearch/PrimarySearch_ki.jsp?energyterm=kJ/mole&tag=pol&polymerid=2630&target=DNA+Gyrase+Subunit+B&column=ki&startPg=0&Increment=50&submit=Search

> <Link to Ligand-Target Pair in BindingDB>
http://www.bindingdb.org/jsp/dbsearch/PrimarySearch_ki.jsp?energyterm=kJ/mole&tag=r21&monomerid=50198319&enzyme=DNA+Gyrase+Subunit+B&column=ki&startPg=0&Increment=50&submit=Search

> <Ligand HET ID in PDB>


> <PDB ID(s) for Ligand-Target Complex>


> <PubChem CID>
134133671

> <PubChem SID>
375978203

> <ChEBI ID of Ligand>


> <ChEMBL ID of Ligand>


> <DrugBank ID of Ligand>


> <IUPHAR_GRAC ID of Ligand>


> <KEGG ID of Ligand>


> <ZINC ID of Ligand>


> <Number of Protein Chains in Target (>1 implies a multichain complex)>
1

> <BindingDB Target Chain Sequence>
MSNSYDSSSIKVLKGLDAVRKRPGMYIGDTDDGTGLHHMVFEVVDNAIDEALAGHCKEII
VTIHADNSVSVQDDGRGIPTGIHPEEGVSAAEVIMTVLHAGGKFDDNSYKVSGGLHGVGV
SVVNALSQKLELVIQREGKIHRQIYEHGVPQAPLAVTGETEKTGTMVRFWPSLETFTNVT
EFEYEILAKRLRELSFLNSGVSIRLRDKRDGKEDHFHYEGGIKAFVEYLNKNKTPIHPNI
FYFSTEKDGIGVEVALQWNDGFQENIYCFTNNIPQRDGGTHLAGFRAAMTRTLNAYMDKE
GYSKKAKVSATGDDAREGLIAVVSVKVPDPKFSSQTKDKLVSSEVKSAVEQQMNELLAEY
LLENPTDAKIVVGKIIDAARAREAARRAREMTRRKGALDLAGLPGKLADCQERDPALSEL
YLVEGDSAGGSAKQGRNRKNQAILPLKGKILNVEKARFDKMLSSQEVATLITALGCGIGR
DEYNPDKLRYHSIIIMTDADVDGSHIRTLLLTFFYRQMPEIVERGHVYIAQPPLYKVKKG
KQEQYIKDDEAMDQYQISIALDGATLHTNASAPALAGEALEKLVSEYNATQKMINRMERR
YPKAMLKELIYQPTLTEADLSDEQTVTRWVNALVSELNDKEQHGSQWKFDVHTNAEQNLF
EPIVRVRTHGVDTDYPLDHEFITGGEYRRICTLGEKLRGLLEEDAFIERGERRQPVASFE
QALDWLVKESRRGLSIQRYKGLGEMNPEQLWETTMDPESRRMLRVTVKDAIAADQLFTTL
MGDAVEPRRAFIEENALKAANIDI

> <PDB ID(s) of Target Chain>
1KZN,3G7E,3NUH,4DUH,4HYP,4KFG,4PRV,4PRX,4PU9,4WUB,4WUC,4WUD,4XTJ,4ZVI,5L3J,5MMN,5MMO,5MMP,5Z4H,5Z4O,5Z9B,5Z9E,5Z9F,5Z9L,5Z9M,5Z9N,5Z9Q,6ENG,6F86,6F8J,6F94,6F96

> <UniProt (SwissProt) Recommended Name of Target Chain>
DNA gyrase subunit B

> <UniProt (SwissProt) Entry Name of Target Chain>
GYRB_ECOLI

> <UniProt (SwissProt) Primary ID of Target Chain>
P0AES6

> <UniProt (SwissProt) Secondary ID(s) of Target Chain>
O08438,P06982,Q2M811

> <UniProt (SwissProt) Alternative ID(s) of Target Chain>


> <UniProt (TrEMBL) Submitted Name of Target Chain>


> <UniProt (TrEMBL) Entry Name of Target Chain>


> <UniProt (TrEMBL) Primary ID of Target Chain>


> <UniProt (TrEMBL) Secondary ID(s) of Target Chain>


> <UniProt (TrEMBL) Alternative ID(s) of Target Chain>


$$$$

  Mrv0541 11241408262D          

 35 38  0  0  0  0            999 V2000
    9.6319  -14.1916    0.0000 C   0  0  0  0  0  0  0  0  0  0  0  0
    9.6307  -15.0190    0.0000 C   0  0  0  0  0  0  0  0  0  0  0  0
   10.3456  -15.4319    0.0000 C   0  0  0  0  0  0  0  0  0  0  0  0
   10.3438  -13.7789    0.0000 C   0  0  0  0  0  0  0  0  0  0  0  0
   11.8504  -13.9340    0.0000 N   0  0  0  0  0  0  0  0  0  0  0  0
   11.0591  -14.1880    0.0000 C   0  0  0  0  0  0  0  0  0  0  0  0
   11.0573  -15.0197    0.0000 N   0  0  0  0  0  0  0  0  0  0  0  0
   11.8485  -15.2771    0.0000 C   0  0  0  0  0  0  0  0  0  0  0  0
   12.3365  -14.6036    0.0000 C   0  0  0  0  0  0  0  0  0  0  0  0
    8.9194  -13.7795    0.0000 C   0  0  0  0  0  0  0  0  0  0  0  0
    8.9206  -12.9534    0.0000 C   0  0  0  0  0  0  0  0  0  0  0  0
    8.2069  -12.5411    0.0000 N   0  0  0  0  0  0  0  0  0  0  0  0
    7.4915  -12.9538    0.0000 C   0  0  0  0  0  0  0  0  0  0  0  0
    7.4943  -13.7831    0.0000 C   0  0  0  0  0  0  0  0  0  0  0  0
    8.2087  -14.1916    0.0000 C   0  0  0  0  0  0  0  0  0  0  0  0
   10.3476  -16.2541    0.0000 C   0  0  0  0  0  0  0  0  0  0  0  0
    9.6317  -16.6664    0.0000 N   0  0  0  0  0  0  0  0  0  0  0  0
    9.6318  -17.4906    0.0000 C   0  0  0  0  0  0  0  0  0  0  0  0
   10.3470  -17.9036    0.0000 C   0  0  0  0  0  0  0  0  0  0  0  0
   11.0636  -17.4862    0.0000 C   0  0  0  0  0  0  0  0  0  0  0  0
   11.0600  -16.6634    0.0000 N   0  0  0  0  0  0  0  0  0  0  0  0
   13.1615  -14.6033    0.0000 N   0  0  0  0  0  0  0  0  0  0  0  0
   13.5737  -13.8886    0.0000 C   0  0  0  0  0  0  0  0  0  0  0  0
   14.3987  -13.8883    0.0000 N   0  0  0  0  0  0  0  0  0  0  0  0
   13.1609  -13.1743    0.0000 O   0  0  0  0  0  0  0  0  0  0  0  0
   14.8115  -14.6026    0.0000 C   0  0  0  0  0  0  0  0  0  0  0  0
   15.6365  -14.6023    0.0000 C   0  0  0  0  0  0  0  0  0  0  0  0
    8.9173  -17.9032    0.0000 C   0  0  0  0  0  0  0  0  0  0  0  0
   11.7798  -17.8958    0.0000 C   0  0  0  0  0  0  0  0  0  0  0  0
    8.2028  -17.4907    0.0000 F   0  0  0  0  0  0  0  0  0  0  0  0
    8.9174  -18.7282    0.0000 F   0  0  0  0  0  0  0  0  0  0  0  0
    8.2000  -18.3083    0.0000 F   0  0  0  0  0  0  0  0  0  0  0  0
   11.7831  -18.7208    0.0000 F   0  0  0  0  0  0  0  0  0  0  0  0
   12.4926  -17.4804    0.0000 F   0  0  0  0  0  0  0  0  0  0  0  0
   12.4917  -18.3042    0.0000 F   0  0  0  0  0  0  0  0  0  0  0  0
 16 17  2  0  0  0  0
  7  8  1  0  0  0  0
 17 18  1  0  0  0  0
  8  9  2  0  0  0  0
 18 19  2  0  0  0  0
  9  5  1  0  0  0  0
 19 20  1  0  0  0  0
  4  1  2  0  0  0  0
 20 21  2  0  0  0  0
 21 16  1  0  0  0  0
  3 16  1  0  0  0  0
  6  7  1  0  0  0  0
  9 22  1  0  0  0  0
 10 11  2  0  0  0  0
 22 23  1  0  0  0  0
 23 24  1  0  0  0  0
 11 12  1  0  0  0  0
 23 25  2  0  0  0  0
  2  3  2  0  0  0  0
 24 26  1  0  0  0  0
 12 13  2  0  0  0  0
 26 27  1  0  0  0  0
  3  7  1  0  0  0  0
 18 28  1  0  0  0  0
 13 14  1  0  0  0  0
 20 29  1  0  0  0  0
  1  2  1  0  0  0  0
 28 30  1  0  0  0  0
 14 15  2  0  0  0  0
 28 31  1  0  0  0  0
 15 10  1  0  0  0  0
 28 32  1  0  0  0  0
  1 10  1  0  0  0  0
 29 33  1  0  0  0  0
  6  4  1  0  0  0  0
 29 34  1  0  0  0  0
  5  6  2  0  0  0  0
 29 35  1  0  0  0  0
M  END
> <From> 
www.bindingDB.org

> <BindingDB Reactant_set_id>
50904828

> <Ligand InChI>
InChI=1S/C21H15F6N7O/c1-2-29-19(35)33-16-10-34-13(6-12(7-17(34)32-16)11-4-3-5-28-9-11)18-30-14(20(22,23)24)8-15(31-18)21(25,26)27/h3-10H,2H2,1H3,(H2,29,33,35)

> <Ligand InChI Key>
OIKPUVGIFBCWLO-UHFFFAOYSA-N

> <BindingDB MonomerID>
50378437

> <BindingDB Ligand Name>
CHEMBL578992

> <Target Name Assigned by Curator or DataSource>
DNA gyrase subunit B

> <Target Source Organism According to Curator or DataSource>
Streptococcus pneumoniae

> <Ki (nM)>


> <IC50 (nM)>
 242

> <Kd (nM)>


> <EC50 (nM)>


> <kon (M-1-s-1)>


> <koff (s-1)>


> <pH>


> <Temp C>


> <Curation/DataSource>
ChEMBL

> <Article DOI>
10.1016/j.bmcl.2009.07.141

> <PMID>
19683922

> <PubChem AID>


> <Patent Number>


> <Authors>
Starr, JT; Sciotti, RJ; Hanna, DL; Huband, MD; Mullins, LM; Cai, H; Gage, JW; Lockard, M; Rauckhorst, MR; Owen, RM; Lall, MS; Tomilo, M; Chen, H; McCurdy, SP; Barbachyn, MR

> <Institution>
Pfizer Inc.

> <Link to Ligand in BindingDB>
http://www.bindingdb.org/bind/chemsearch/marvin/MolStructure.jsp?monomerid=50378437

> <Link to Ligand-Target Pair in BindingDB>
http://www.bindingdb.org/jsp/dbsearch/PrimarySearch_ki.jsp?energyterm=kJ/mole&tag=pol&polymerid=50005944&target=DNA+gyrase+subunit+B&column=ki&startPg=0&Increment=50&submit=Search

> <Link to Ligand-Target Pair in BindingDB>
http://www.bindingdb.org/jsp/dbsearch/PrimarySearch_ki.jsp?energyterm=kJ/mole&tag=r21&monomerid=50378437&enzyme=DNA+gyrase+subunit+B&column=ki&startPg=0&Increment=50&submit=Search

> <Ligand HET ID in PDB>


> <PDB ID(s) for Ligand-Target Complex>


> <PubChem CID>
45484764

> <PubChem SID>
160857520

> <ChEBI ID of Ligand>


> <ChEMBL ID of Ligand>
CHEMBL578992

> <DrugBank ID of Ligand>


> <IUPHAR_GRAC ID of Ligand>


> <KEGG ID of Ligand>


> <ZINC ID of Ligand>
ZINC45302899

> <Number of Protein Chains in Target (>1 implies a multichain complex)>
1

> <BindingDB Target Chain Sequence>
MTEEIKNLQAQDYDASQIQVLEGLEAVRMRPGMYIGSTSKEGLHHLVWEIVDNSIDEALAGFASHIQVFIEPDDSITVVDDGRGIPVDIQEKTGRPAVETVFTVLHAGGKFGGGGYKVSGGLHGVGSSVVNALSTQLDVHVHKNGKIHYQEYRRGHVVADLEIVGDTDKTGTTVHFTPDPKIFTETTIFDFDKLNKRIQELAFLNRGLQISITDKRQGLEQTKHYHYEGGIASYVEYINENKDVIFDTPIYTDGEMDDITVEVAMQYTTGYHENVMSFANNIHTHEGGTHEQGFRTALTRVINDYARKNKLLKDNEDNLTGEDVREGLTAVISVKHPNPQFEGQTKTKLGNSEVVKITNRLFSEAFSDFLMENPQIAKRIVEKGILAAKARVAAKRAREVTRKKSGLEISNLPGKLADCSSNNPAETELFIVEGDSAGGSAKSGRNREFQAILPIRGKILNVEKASMDKILANEEIRSLFTAMGTGFGAEFDVSKARYQKLVLMTDADVDGAHIRTLLLTLIYRYMKPILEAGYVYIAQPPIYGVKVGSEIKEYIQPGADQEIKLQEALARYSEGRTKPTIQRYKGLGEMDDHQLWETTMDPEHRLMARVSVDDAAEADKIFDMLMGDRVEPRREFIEENAVYSTLDV

> <PDB ID(s) of Target Chain>
4Z2C,4Z2D,4Z2E

> <UniProt (SwissProt) Recommended Name of Target Chain>
DNA gyrase subunit B

> <UniProt (SwissProt) Entry Name of Target Chain>
GYRB_STRPN

> <UniProt (SwissProt) Primary ID of Target Chain>
P0A4L9

> <UniProt (SwissProt) Secondary ID(s) of Target Chain>
P48373

> <UniProt (SwissProt) Alternative ID(s) of Target Chain>


> <UniProt (TrEMBL) Submitted Name of Target Chain>


> <UniProt (TrEMBL) Entry Name of Target Chain>


> <UniProt (TrEMBL) Primary ID of Target Chain>


> <UniProt (TrEMBL) Secondary ID(s) of Target Chain>


> <UniProt (TrEMBL) Alternative ID(s) of Target Chain>


$$$$

  Mrv0541 11241408262D          

 33 37  0  0  0  0            999 V2000
    9.9677  -19.4926    0.0000 C   0  0  0  0  0  0  0  0  0  0  0  0
    9.9665  -20.3196    0.0000 C   0  0  0  0  0  0  0  0  0  0  0  0
   10.6809  -20.7322    0.0000 C   0  0  0  0  0  0  0  0  0  0  0  0
   10.6791  -19.0802    0.0000 C   0  0  0  0  0  0  0  0  0  0  0  0
   12.1849  -19.2352    0.0000 N   0  0  0  0  0  0  0  0  0  0  0  0
   11.3941  -19.4890    0.0000 C   0  0  0  0  0  0  0  0  0  0  0  0
   11.3923  -20.3203    0.0000 N   0  0  0  0  0  0  0  0  0  0  0  0
   12.1829  -20.5775    0.0000 C   0  0  0  0  0  0  0  0  0  0  0  0
   12.6708  -19.9044    0.0000 C   0  0  0  0  0  0  0  0  0  0  0  0
    9.2557  -19.0808    0.0000 C   0  0  0  0  0  0  0  0  0  0  0  0
    9.2568  -18.2552    0.0000 C   0  0  0  0  0  0  0  0  0  0  0  0
    8.5435  -17.8431    0.0000 N   0  0  0  0  0  0  0  0  0  0  0  0
    7.8286  -18.2556    0.0000 C   0  0  0  0  0  0  0  0  0  0  0  0
    7.8314  -19.0844    0.0000 N   0  0  0  0  0  0  0  0  0  0  0  0
    8.5453  -19.4926    0.0000 C   0  0  0  0  0  0  0  0  0  0  0  0
   10.6829  -21.5539    0.0000 C   0  0  0  0  0  0  0  0  0  0  0  0
    9.9675  -21.9660    0.0000 N   0  0  0  0  0  0  0  0  0  0  0  0
    9.9676  -22.7897    0.0000 C   0  0  0  0  0  0  0  0  0  0  0  0
   10.6824  -23.2025    0.0000 C   0  0  0  0  0  0  0  0  0  0  0  0
   11.3986  -22.7853    0.0000 C   0  0  0  0  0  0  0  0  0  0  0  0
   11.3950  -21.9630    0.0000 N   0  0  0  0  0  0  0  0  0  0  0  0
   13.4953  -19.9041    0.0000 N   0  0  0  0  0  0  0  0  0  0  0  0
   13.9072  -19.1898    0.0000 C   0  0  0  0  0  0  0  0  0  0  0  0
   13.4947  -18.4759    0.0000 O   0  0  0  0  0  0  0  0  0  0  0  0
   14.7317  -19.1895    0.0000 N   0  0  0  0  0  0  0  0  0  0  0  0
   15.1443  -19.9034    0.0000 C   0  0  0  0  0  0  0  0  0  0  0  0
   15.9688  -19.9031    0.0000 C   0  0  0  0  0  0  0  0  0  0  0  0
   10.6839  -24.0270    0.0000 C   0  0  0  0  0  0  0  0  0  0  0  0
    7.1138  -17.8445    0.0000 N   0  0  0  0  0  0  0  0  0  0  0  0
    7.0292  -17.0233    0.0000 C   0  0  0  0  0  0  0  0  0  0  0  0
    6.2215  -16.8528    0.0000 C   0  0  0  0  0  0  0  0  0  0  0  0
    5.8109  -17.5691    0.0000 C   0  0  0  0  0  0  0  0  0  0  0  0
    6.3663  -18.1799    0.0000 C   0  0  0  0  0  0  0  0  0  0  0  0
  6  4  1  0  0  0  0
  5  6  2  0  0  0  0
 16 17  2  0  0  0  0
  7  8  1  0  0  0  0
 17 18  1  0  0  0  0
  8  9  2  0  0  0  0
 18 19  2  0  0  0  0
  9  5  1  0  0  0  0
 19 20  1  0  0  0  0
  4  1  2  0  0  0  0
 20 21  2  0  0  0  0
 21 16  1  0  0  0  0
  3 16  1  0  0  0  0
  6  7  1  0  0  0  0
  9 22  1  0  0  0  0
 10 11  2  0  0  0  0
 22 23  1  0  0  0  0
 23 24  2  0  0  0  0
 11 12  1  0  0  0  0
 23 25  1  0  0  0  0
  2  3  2  0  0  0  0
 25 26  1  0  0  0  0
 12 13  2  0  0  0  0
 26 27  1  0  0  0  0
  3  7  1  0  0  0  0
 19 28  1  0  0  0  0
 13 14  1  0  0  0  0
 13 29  1  0  0  0  0
 30 31  1  0  0  0  0
  1  2  1  0  0  0  0
 14 15  2  0  0  0  0
 15 10  1  0  0  0  0
  1 10  1  0  0  0  0
 29 30  1  0  0  0  0
 31 32  1  0  0  0  0
 32 33  1  0  0  0  0
 33 29  1  0  0  0  0
M  END
> <From> 
www.bindingDB.org

> <BindingDB Reactant_set_id>
50904844

> <Ligand InChI>
InChI=1S/C23H25N9O/c1-3-24-23(33)30-19-14-32-18(21-25-10-15(2)11-26-21)8-16(9-20(32)29-19)17-12-27-22(28-13-17)31-6-4-5-7-31/h8-14H,3-7H2,1-2H3,(H2,24,30,33)

> <Ligand InChI Key>
XMXREKQYAQTQSR-UHFFFAOYSA-N

> <BindingDB MonomerID>
50378453

> <BindingDB Ligand Name>
CHEMBL567804

> <Target Name Assigned by Curator or DataSource>
DNA gyrase subunit B

> <Target Source Organism According to Curator or DataSource>
Streptococcus pneumoniae

> <Ki (nM)>


> <IC50 (nM)>
 244

> <Kd (nM)>


> <EC50 (nM)>


> <kon (M-1-s-1)>


> <koff (s-1)>


> <pH>


> <Temp C>


> <Curation/DataSource>
ChEMBL

> <Article DOI>
10.1016/j.bmcl.2009.07.141

> <PMID>
19683922

> <PubChem AID>


> <Patent Number>


> <Authors>
Starr, JT; Sciotti, RJ; Hanna, DL; Huband, MD; Mullins, LM; Cai, H; Gage, JW; Lockard, M; Rauckhorst, MR; Owen, RM; Lall, MS; Tomilo, M; Chen, H; McCurdy, SP; Barbachyn, MR

> <Institution>
Pfizer Inc.

> <Link to Ligand in BindingDB>
http://www.bindingdb.org/bind/chemsearch/marvin/MolStructure.jsp?monomerid=50378453

> <Link to Ligand-Target Pair in BindingDB>
http://www.bindingdb.org/jsp/dbsearch/PrimarySearch_ki.jsp?energyterm=kJ/mole&tag=pol&polymerid=50005944&target=DNA+gyrase+subunit+B&column=ki&startPg=0&Increment=50&submit=Search

> <Link to Ligand-Target Pair in BindingDB>
http://www.bindingdb.org/jsp/dbsearch/PrimarySearch_ki.jsp?energyterm=kJ/mole&tag=r21&monomerid=50378453&enzyme=DNA+gyrase+subunit+B&column=ki&startPg=0&Increment=50&submit=Search

> <Ligand HET ID in PDB>


> <PDB ID(s) for Ligand-Target Complex>


> <PubChem CID>
45484777

> <PubChem SID>
160857536

> <ChEBI ID of Ligand>


> <ChEMBL ID of Ligand>
CHEMBL567804

> <DrugBank ID of Ligand>


> <IUPHAR_GRAC ID of Ligand>


> <KEGG ID of Ligand>


> <ZINC ID of Ligand>
ZINC45257674

> <Number of Protein Chains in Target (>1 implies a multichain complex)>
1

> <BindingDB Target Chain Sequence>
MTEEIKNLQAQDYDASQIQVLEGLEAVRMRPGMYIGSTSKEGLHHLVWEIVDNSIDEALAGFASHIQVFIEPDDSITVVDDGRGIPVDIQEKTGRPAVETVFTVLHAGGKFGGGGYKVSGGLHGVGSSVVNALSTQLDVHVHKNGKIHYQEYRRGHVVADLEIVGDTDKTGTTVHFTPDPKIFTETTIFDFDKLNKRIQELAFLNRGLQISITDKRQGLEQTKHYHYEGGIASYVEYINENKDVIFDTPIYTDGEMDDITVEVAMQYTTGYHENVMSFANNIHTHEGGTHEQGFRTALTRVINDYARKNKLLKDNEDNLTGEDVREGLTAVISVKHPNPQFEGQTKTKLGNSEVVKITNRLFSEAFSDFLMENPQIAKRIVEKGILAAKARVAAKRAREVTRKKSGLEISNLPGKLADCSSNNPAETELFIVEGDSAGGSAKSGRNREFQAILPIRGKILNVEKASMDKILANEEIRSLFTAMGTGFGAEFDVSKARYQKLVLMTDADVDGAHIRTLLLTLIYRYMKPILEAGYVYIAQPPIYGVKVGSEIKEYIQPGADQEIKLQEALARYSEGRTKPTIQRYKGLGEMDDHQLWETTMDPEHRLMARVSVDDAAEADKIFDMLMGDRVEPRREFIEENAVYSTLDV

> <PDB ID(s) of Target Chain>
4Z2C,4Z2D,4Z2E

> <UniProt (SwissProt) Recommended Name of Target Chain>
DNA gyrase subunit B

> <UniProt (SwissProt) Entry Name of Target Chain>
GYRB_STRPN

> <UniProt (SwissProt) Primary ID of Target Chain>
P0A4L9

> <UniProt (SwissProt) Secondary ID(s) of Target Chain>
P48373

> <UniProt (SwissProt) Alternative ID(s) of Target Chain>


> <UniProt (TrEMBL) Submitted Name of Target Chain>


> <UniProt (TrEMBL) Entry Name of Target Chain>


> <UniProt (TrEMBL) Primary ID of Target Chain>


> <UniProt (TrEMBL) Secondary ID(s) of Target Chain>


> <UniProt (TrEMBL) Alternative ID(s) of Target Chain>


$$$$

  Mrv0541 11241408262D          

 27 30  0  0  0  0            999 V2000
   10.2569  -22.5625    0.0000 C   0  0  0  0  0  0  0  0  0  0  0  0
   10.2557  -23.3898    0.0000 C   0  0  0  0  0  0  0  0  0  0  0  0
   10.9706  -23.8027    0.0000 C   0  0  0  0  0  0  0  0  0  0  0  0
   10.9688  -22.1497    0.0000 C   0  0  0  0  0  0  0  0  0  0  0  0
   12.4754  -22.3048    0.0000 N   0  0  0  0  0  0  0  0  0  0  0  0
   11.6841  -22.5588    0.0000 C   0  0  0  0  0  0  0  0  0  0  0  0
   11.6823  -23.3906    0.0000 N   0  0  0  0  0  0  0  0  0  0  0  0
   12.4735  -23.6480    0.0000 C   0  0  0  0  0  0  0  0  0  0  0  0
   12.9615  -22.9744    0.0000 C   0  0  0  0  0  0  0  0  0  0  0  0
    9.5444  -22.1503    0.0000 C   0  0  0  0  0  0  0  0  0  0  0  0
    9.5456  -21.3242    0.0000 C   0  0  0  0  0  0  0  0  0  0  0  0
    8.8319  -20.9119    0.0000 N   0  0  0  0  0  0  0  0  0  0  0  0
    8.1165  -21.3247    0.0000 C   0  0  0  0  0  0  0  0  0  0  0  0
    8.1193  -22.1539    0.0000 C   0  0  0  0  0  0  0  0  0  0  0  0
    8.8337  -22.5624    0.0000 C   0  0  0  0  0  0  0  0  0  0  0  0
   10.9726  -24.6249    0.0000 C   0  0  0  0  0  0  0  0  0  0  0  0
   10.2567  -25.0372    0.0000 N   0  0  0  0  0  0  0  0  0  0  0  0
   10.2568  -25.8615    0.0000 C   0  0  0  0  0  0  0  0  0  0  0  0
   11.6886  -25.8571    0.0000 C   0  0  0  0  0  0  0  0  0  0  0  0
   11.6850  -25.0342    0.0000 N   0  0  0  0  0  0  0  0  0  0  0  0
   13.7865  -22.9741    0.0000 N   0  0  0  0  0  0  0  0  0  0  0  0
   14.1987  -22.2595    0.0000 C   0  0  0  0  0  0  0  0  0  0  0  0
   13.7859  -21.5452    0.0000 O   0  0  0  0  0  0  0  0  0  0  0  0
   15.0237  -22.2591    0.0000 C   0  0  0  0  0  0  0  0  0  0  0  0
   15.4365  -22.9734    0.0000 C   0  0  0  0  0  0  0  0  0  0  0  0
   10.9720  -26.2744    0.0000 C   0  0  0  0  0  0  0  0  0  0  0  0
   10.9720  -27.0994    0.0000 C   0  0  0  0  0  0  0  0  0  0  0  0
  3  7  1  0  0  0  0
 13 14  2  0  0  0  0
  1  2  1  0  0  0  0
 14 15  1  0  0  0  0
 15 10  2  0  0  0  0
  1 10  1  0  0  0  0
  6  4  1  0  0  0  0
  5  6  2  0  0  0  0
 16 17  2  0  0  0  0
  7  8  1  0  0  0  0
 17 18  1  0  0  0  0
  8  9  2  0  0  0  0
 18 26  2  0  0  0  0
  9  5  1  0  0  0  0
 26 19  1  0  0  0  0
  4  1  2  0  0  0  0
 19 20  2  0  0  0  0
 20 16  1  0  0  0  0
  3 16  1  0  0  0  0
  6  7  1  0  0  0  0
  9 21  1  0  0  0  0
 10 11  1  0  0  0  0
 21 22  1  0  0  0  0
 22 23  2  0  0  0  0
 11 12  2  0  0  0  0
 22 24  1  0  0  0  0
  2  3  2  0  0  0  0
 24 25  1  0  0  0  0
 12 13  1  0  0  0  0
 26 27  1  0  0  0  0
M  END
> <From> 
www.bindingDB.org

> <BindingDB Reactant_set_id>
50904830

> <Ligand InChI>
InChI=1S/C20H18N6O/c1-3-19(27)25-17-12-26-16(20-22-9-13(2)10-23-20)7-15(8-18(26)24-17)14-5-4-6-21-11-14/h4-12H,3H2,1-2H3,(H,25,27)

> <Ligand InChI Key>
AHHCJBNTWAHDNY-UHFFFAOYSA-N

> <BindingDB MonomerID>
50378439

> <BindingDB Ligand Name>
CHEMBL565741

> <Target Name Assigned by Curator or DataSource>
DNA gyrase subunit B

> <Target Source Organism According to Curator or DataSource>
Streptococcus pneumoniae

> <Ki (nM)>


> <IC50 (nM)>
 255

> <Kd (nM)>


> <EC50 (nM)>


> <kon (M-1-s-1)>


> <koff (s-1)>


> <pH>


> <Temp C>


> <Curation/DataSource>
ChEMBL

> <Article DOI>
10.1016/j.bmcl.2009.07.141

> <PMID>
19683922

> <PubChem AID>


> <Patent Number>


> <Authors>
Starr, JT; Sciotti, RJ; Hanna, DL; Huband, MD; Mullins, LM; Cai, H; Gage, JW; Lockard, M; Rauckhorst, MR; Owen, RM; Lall, MS; Tomilo, M; Chen, H; McCurdy, SP; Barbachyn, MR

> <Institution>
Pfizer Inc.

> <Link to Ligand in BindingDB>
http://www.bindingdb.org/bind/chemsearch/marvin/MolStructure.jsp?monomerid=50378439

> <Link to Ligand-Target Pair in BindingDB>
http://www.bindingdb.org/jsp/dbsearch/PrimarySearch_ki.jsp?energyterm=kJ/mole&tag=pol&polymerid=50005944&target=DNA+gyrase+subunit+B&column=ki&startPg=0&Increment=50&submit=Search

> <Link to Ligand-Target Pair in BindingDB>
http://www.bindingdb.org/jsp/dbsearch/PrimarySearch_ki.jsp?energyterm=kJ/mole&tag=r21&monomerid=50378439&enzyme=DNA+gyrase+subunit+B&column=ki&startPg=0&Increment=50&submit=Search

> <Ligand HET ID in PDB>


> <PDB ID(s) for Ligand-Target Complex>


> <PubChem CID>
45484786

> <PubChem SID>
160857522

> <ChEBI ID of Ligand>


> <ChEMBL ID of Ligand>
CHEMBL565741

> <DrugBank ID of Ligand>


> <IUPHAR_GRAC ID of Ligand>


> <KEGG ID of Ligand>


> <ZINC ID of Ligand>
ZINC45253028

> <Number of Protein Chains in Target (>1 implies a multichain complex)>
1

> <BindingDB Target Chain Sequence>
MTEEIKNLQAQDYDASQIQVLEGLEAVRMRPGMYIGSTSKEGLHHLVWEIVDNSIDEALAGFASHIQVFIEPDDSITVVDDGRGIPVDIQEKTGRPAVETVFTVLHAGGKFGGGGYKVSGGLHGVGSSVVNALSTQLDVHVHKNGKIHYQEYRRGHVVADLEIVGDTDKTGTTVHFTPDPKIFTETTIFDFDKLNKRIQELAFLNRGLQISITDKRQGLEQTKHYHYEGGIASYVEYINENKDVIFDTPIYTDGEMDDITVEVAMQYTTGYHENVMSFANNIHTHEGGTHEQGFRTALTRVINDYARKNKLLKDNEDNLTGEDVREGLTAVISVKHPNPQFEGQTKTKLGNSEVVKITNRLFSEAFSDFLMENPQIAKRIVEKGILAAKARVAAKRAREVTRKKSGLEISNLPGKLADCSSNNPAETELFIVEGDSAGGSAKSGRNREFQAILPIRGKILNVEKASMDKILANEEIRSLFTAMGTGFGAEFDVSKARYQKLVLMTDADVDGAHIRTLLLTLIYRYMKPILEAGYVYIAQPPIYGVKVGSEIKEYIQPGADQEIKLQEALARYSEGRTKPTIQRYKGLGEMDDHQLWETTMDPEHRLMARVSVDDAAEADKIFDMLMGDRVEPRREFIEENAVYSTLDV

> <PDB ID(s) of Target Chain>
4Z2C,4Z2D,4Z2E

> <UniProt (SwissProt) Recommended Name of Target Chain>
DNA gyrase subunit B

> <UniProt (SwissProt) Entry Name of Target Chain>
GYRB_STRPN

> <UniProt (SwissProt) Primary ID of Target Chain>
P0A4L9

> <UniProt (SwissProt) Secondary ID(s) of Target Chain>
P48373

> <UniProt (SwissProt) Alternative ID(s) of Target Chain>


> <UniProt (TrEMBL) Submitted Name of Target Chain>


> <UniProt (TrEMBL) Entry Name of Target Chain>


> <UniProt (TrEMBL) Primary ID of Target Chain>


> <UniProt (TrEMBL) Secondary ID(s) of Target Chain>


> <UniProt (TrEMBL) Alternative ID(s) of Target Chain>


$$$$

  Mrv0541 11241408262D          

 30 33  0  0  0  0            999 V2000
    8.2360  -21.5958    0.0000 C   0  0  0  0  0  0  0  0  0  0  0  0
    8.2349  -22.4232    0.0000 C   0  0  0  0  0  0  0  0  0  0  0  0
    8.9497  -22.8361    0.0000 C   0  0  0  0  0  0  0  0  0  0  0  0
    8.9479  -21.1831    0.0000 C   0  0  0  0  0  0  0  0  0  0  0  0
   10.4546  -21.3382    0.0000 N   0  0  0  0  0  0  0  0  0  0  0  0
    9.6633  -21.5922    0.0000 C   0  0  0  0  0  0  0  0  0  0  0  0
    9.6614  -22.4239    0.0000 N   0  0  0  0  0  0  0  0  0  0  0  0
   10.4526  -22.6813    0.0000 C   0  0  0  0  0  0  0  0  0  0  0  0
   10.9406  -22.0078    0.0000 C   0  0  0  0  0  0  0  0  0  0  0  0
    7.5236  -21.1837    0.0000 C   0  0  0  0  0  0  0  0  0  0  0  0
    7.5247  -20.3576    0.0000 C   0  0  0  0  0  0  0  0  0  0  0  0
    6.8110  -19.9453    0.0000 N   0  0  0  0  0  0  0  0  0  0  0  0
    6.0956  -20.3580    0.0000 C   0  0  0  0  0  0  0  0  0  0  0  0
    6.0985  -21.1873    0.0000 C   0  0  0  0  0  0  0  0  0  0  0  0
    6.8128  -21.5958    0.0000 C   0  0  0  0  0  0  0  0  0  0  0  0
    8.9517  -23.6583    0.0000 C   0  0  0  0  0  0  0  0  0  0  0  0
    8.2358  -24.0706    0.0000 N   0  0  0  0  0  0  0  0  0  0  0  0
    8.2359  -24.8948    0.0000 C   0  0  0  0  0  0  0  0  0  0  0  0
    9.6678  -24.8904    0.0000 C   0  0  0  0  0  0  0  0  0  0  0  0
    9.6641  -24.0676    0.0000 N   0  0  0  0  0  0  0  0  0  0  0  0
   11.7656  -22.0075    0.0000 N   0  0  0  0  0  0  0  0  0  0  0  0
   12.1778  -21.2928    0.0000 C   0  0  0  0  0  0  0  0  0  0  0  0
   11.7651  -20.5785    0.0000 O   0  0  0  0  0  0  0  0  0  0  0  0
   13.0028  -21.2925    0.0000 N   0  0  0  0  0  0  0  0  0  0  0  0
   13.4156  -22.0068    0.0000 C   0  0  0  0  0  0  0  0  0  0  0  0
   14.2406  -22.0065    0.0000 C   0  0  0  0  0  0  0  0  0  0  0  0
   14.6534  -22.7208    0.0000 C   0  0  0  0  0  0  0  0  0  0  0  0
   15.4784  -22.7204    0.0000 C   0  0  0  0  0  0  0  0  0  0  0  0
    8.9512  -25.3078    0.0000 C   0  0  0  0  0  0  0  0  0  0  0  0
    8.9512  -26.1328    0.0000 C   0  0  0  0  0  0  0  0  0  0  0  0
  1  2  1  0  0  0  0
 14 15  1  0  0  0  0
 15 10  2  0  0  0  0
  1 10  1  0  0  0  0
  6  4  1  0  0  0  0
  5  6  2  0  0  0  0
 16 17  2  0  0  0  0
  7  8  1  0  0  0  0
 17 18  1  0  0  0  0
  8  9  2  0  0  0  0
 18 29  2  0  0  0  0
  9  5  1  0  0  0  0
 29 19  1  0  0  0  0
  4  1  2  0  0  0  0
 19 20  2  0  0  0  0
 20 16  1  0  0  0  0
  3 16  1  0  0  0  0
  6  7  1  0  0  0  0
  9 21  1  0  0  0  0
 10 11  1  0  0  0  0
 21 22  1  0  0  0  0
 22 23  2  0  0  0  0
 11 12  2  0  0  0  0
 22 24  1  0  0  0  0
  2  3  2  0  0  0  0
 24 25  1  0  0  0  0
 12 13  1  0  0  0  0
  3  7  1  0  0  0  0
 25 26  1  0  0  0  0
 13 14  2  0  0  0  0
 26 27  1  0  0  0  0
 27 28  1  0  0  0  0
 29 30  1  0  0  0  0
M  END
> <From> 
www.bindingDB.org

> <BindingDB Reactant_set_id>
50904832

> <Ligand InChI>
InChI=1S/C22H23N7O/c1-3-4-8-24-22(30)28-19-14-29-18(21-25-11-15(2)12-26-21)9-17(10-20(29)27-19)16-6-5-7-23-13-16/h5-7,9-14H,3-4,8H2,1-2H3,(H2,24,28,30)

> <Ligand InChI Key>
DGQOFSPXJPBFKY-UHFFFAOYSA-N

> <BindingDB MonomerID>
50378441

> <BindingDB Ligand Name>
CHEMBL578138

> <Target Name Assigned by Curator or DataSource>
DNA gyrase subunit B

> <Target Source Organism According to Curator or DataSource>
Streptococcus pneumoniae

> <Ki (nM)>


> <IC50 (nM)>
 261

> <Kd (nM)>


> <EC50 (nM)>


> <kon (M-1-s-1)>


> <koff (s-1)>


> <pH>


> <Temp C>


> <Curation/DataSource>
ChEMBL

> <Article DOI>
10.1016/j.bmcl.2009.07.141

> <PMID>
19683922

> <PubChem AID>


> <Patent Number>


> <Authors>
Starr, JT; Sciotti, RJ; Hanna, DL; Huband, MD; Mullins, LM; Cai, H; Gage, JW; Lockard, M; Rauckhorst, MR; Owen, RM; Lall, MS; Tomilo, M; Chen, H; McCurdy, SP; Barbachyn, MR

> <Institution>
Pfizer Inc.

> <Link to Ligand in BindingDB>
http://www.bindingdb.org/bind/chemsearch/marvin/MolStructure.jsp?monomerid=50378441

> <Link to Ligand-Target Pair in BindingDB>
http://www.bindingdb.org/jsp/dbsearch/PrimarySearch_ki.jsp?energyterm=kJ/mole&tag=pol&polymerid=50005944&target=DNA+gyrase+subunit+B&column=ki&startPg=0&Increment=50&submit=Search

> <Link to Ligand-Target Pair in BindingDB>
http://www.bindingdb.org/jsp/dbsearch/PrimarySearch_ki.jsp?energyterm=kJ/mole&tag=r21&monomerid=50378441&enzyme=DNA+gyrase+subunit+B&column=ki&startPg=0&Increment=50&submit=Search

> <Ligand HET ID in PDB>


> <PDB ID(s) for Ligand-Target Complex>


> <PubChem CID>
45484796

> <PubChem SID>
160857524

> <ChEBI ID of Ligand>


> <ChEMBL ID of Ligand>
CHEMBL578138

> <DrugBank ID of Ligand>


> <IUPHAR_GRAC ID of Ligand>


> <KEGG ID of Ligand>


> <ZINC ID of Ligand>
ZINC45300181

> <Number of Protein Chains in Target (>1 implies a multichain complex)>
1

> <BindingDB Target Chain Sequence>
MTEEIKNLQAQDYDASQIQVLEGLEAVRMRPGMYIGSTSKEGLHHLVWEIVDNSIDEALAGFASHIQVFIEPDDSITVVDDGRGIPVDIQEKTGRPAVETVFTVLHAGGKFGGGGYKVSGGLHGVGSSVVNALSTQLDVHVHKNGKIHYQEYRRGHVVADLEIVGDTDKTGTTVHFTPDPKIFTETTIFDFDKLNKRIQELAFLNRGLQISITDKRQGLEQTKHYHYEGGIASYVEYINENKDVIFDTPIYTDGEMDDITVEVAMQYTTGYHENVMSFANNIHTHEGGTHEQGFRTALTRVINDYARKNKLLKDNEDNLTGEDVREGLTAVISVKHPNPQFEGQTKTKLGNSEVVKITNRLFSEAFSDFLMENPQIAKRIVEKGILAAKARVAAKRAREVTRKKSGLEISNLPGKLADCSSNNPAETELFIVEGDSAGGSAKSGRNREFQAILPIRGKILNVEKASMDKILANEEIRSLFTAMGTGFGAEFDVSKARYQKLVLMTDADVDGAHIRTLLLTLIYRYMKPILEAGYVYIAQPPIYGVKVGSEIKEYIQPGADQEIKLQEALARYSEGRTKPTIQRYKGLGEMDDHQLWETTMDPEHRLMARVSVDDAAEADKIFDMLMGDRVEPRREFIEENAVYSTLDV

> <PDB ID(s) of Target Chain>
4Z2C,4Z2D,4Z2E

> <UniProt (SwissProt) Recommended Name of Target Chain>
DNA gyrase subunit B

> <UniProt (SwissProt) Entry Name of Target Chain>
GYRB_STRPN

> <UniProt (SwissProt) Primary ID of Target Chain>
P0A4L9

> <UniProt (SwissProt) Secondary ID(s) of Target Chain>
P48373

> <UniProt (SwissProt) Alternative ID(s) of Target Chain>


> <UniProt (TrEMBL) Submitted Name of Target Chain>


> <UniProt (TrEMBL) Entry Name of Target Chain>


> <UniProt (TrEMBL) Primary ID of Target Chain>


> <UniProt (TrEMBL) Secondary ID(s) of Target Chain>


> <UniProt (TrEMBL) Alternative ID(s) of Target Chain>


$$$$

  Mrv0541 11231413392D          

 48 52  0  0  0  0            999 V2000
   13.7901    1.0499    0.0000 C   0  0  0  0  0  0  0  0  0  0  0  0
   13.0641    1.4515    0.0000 C   0  0  1  0  0  0  0  0  0  0  0  0
   12.3574    1.0260    0.0000 C   0  0  2  0  0  0  0  0  0  0  0  0
   12.3703    0.1971    0.0000 C   0  0  2  0  0  0  0  0  0  0  0  0
   13.0963   -0.2044    0.0000 C   0  0  1  0  0  0  0  0  0  0  0  0
   13.8093    0.2229    0.0000 O   0  0  0  0  0  0  0  0  0  0  0  0
   13.1106   -1.0293    0.0000 O   0  0  0  0  0  0  0  0  0  0  0  0
   13.8303   -1.4405    0.0000 C   0  0  0  0  0  0  0  0  0  0  0  0
   13.8295   -2.2651    0.0000 C   0  0  0  0  0  0  0  0  0  0  0  0
   14.5452   -1.0263    0.0000 C   0  0  0  0  0  0  0  0  0  0  0  0
   15.2596   -1.4441    0.0000 C   0  0  0  0  0  0  0  0  0  0  0  0
   15.2578   -2.2687    0.0000 C   0  0  0  0  0  0  0  0  0  0  0  0
   14.5425   -2.6802    0.0000 C   0  0  0  0  0  0  0  0  0  0  0  0
   14.5413   -3.5009    0.0000 O   0  0  0  0  0  0  0  0  0  0  0  0
   15.2537   -3.9163    0.0000 C   0  0  0  0  0  0  0  0  0  0  0  0
   15.9689   -3.5048    0.0000 C   0  0  0  0  0  0  0  0  0  0  0  0
   15.9719   -2.6778    0.0000 C   0  0  0  0  0  0  0  0  0  0  0  0
   16.6863   -2.2654    0.0000 O   0  0  0  0  0  0  0  0  0  0  0  0
   15.2513   -4.7413    0.0000 O   0  0  0  0  0  0  0  0  0  0  0  0
   16.6823   -3.9190    0.0000 N   0  0  0  0  0  0  0  0  0  0  0  0
   16.6803   -4.7440    0.0000 C   0  0  0  0  0  0  0  0  0  0  0  0
   15.9648   -5.1547    0.0000 O   0  0  0  0  0  0  0  0  0  0  0  0
   14.6177    1.0689    0.0000 C   0  0  0  0  0  0  0  0  0  0  0  0
   13.7793    1.8731    0.0000 C   0  0  0  0  0  0  0  0  0  0  0  0
   13.0491    2.2763    0.0000 O   0  0  0  0  0  0  0  0  0  0  0  0
   13.7558    2.7019    0.0000 C   0  0  0  0  0  0  0  0  0  0  0  0
   11.6360    1.4264    0.0000 O   0  0  0  0  0  0  0  0  0  0  0  0
   11.6221    2.2512    0.0000 C   0  0  0  0  0  0  0  0  0  0  0  0
   10.9010    2.6519    0.0000 C   0  0  0  0  0  0  0  0  0  0  0  0
   12.3295    2.6757    0.0000 O   0  0  0  0  0  0  0  0  0  0  0  0
   11.6630   -0.2275    0.0000 O   0  0  0  0  0  0  0  0  0  0  0  0
   10.6652    3.4454    0.0000 C   0  0  0  0  0  0  0  0  0  0  0  0
    9.8405    3.4685    0.0000 C   0  0  0  0  0  0  0  0  0  0  0  0
    9.5638    2.6912    0.0000 C   0  0  0  0  0  0  0  0  0  0  0  0
   10.2174    2.1880    0.0000 N   0  0  0  0  0  0  0  0  0  0  0  0
    8.8458    2.2871    0.0000 C   0  0  0  0  0  0  0  0  0  0  0  0
   13.1142   -2.6759    0.0000 Cl  0  0  0  0  0  0  0  0  0  0  0  0
   17.3937   -5.1583    0.0000 C   0  0  0  0  0  0  0  0  0  0  0  0
   17.3916   -5.9833    0.0000 C   0  0  0  0  0  0  0  0  0  0  0  0
   18.1051   -6.3975    0.0000 C   0  0  0  0  0  0  0  0  0  0  0  0
   18.0992   -7.2201    0.0000 C   0  0  0  0  0  0  0  0  0  0  0  0
   18.8118   -7.6343    0.0000 C   0  0  0  0  0  0  0  0  0  0  0  0
   19.5284   -7.2235    0.0000 C   0  0  0  0  0  0  0  0  0  0  0  0
   19.5278   -6.3942    0.0000 C   0  0  0  0  0  0  0  0  0  0  0  0
   18.8146   -5.9838    0.0000 C   0  0  0  0  0  0  0  0  0  0  0  0
   20.2418   -5.9811    0.0000 O   0  0  0  0  0  0  0  0  0  0  0  0
   20.9567   -6.3928    0.0000 C   0  0  0  0  0  0  0  0  0  0  0  0
   20.2424   -7.6369    0.0000 O   0  0  0  0  0  0  0  0  0  0  0  0
  1 23  1  0  0  0  0
 11 12  2  0  0  0  0
  1 24  1  0  0  0  0
  3  4  1  0  0  0  0
  2 25  1  1  0  0  0
 12 13  1  0  0  0  0
 25 26  1  0  0  0  0
  4  5  1  0  0  0  0
  3 27  1  6  0  0  0
  5  6  1  0  0  0  0
 27 28  1  0  0  0  0
 28 29  1  0  0  0  0
  5  7  1  1  0  0  0
 28 30  2  0  0  0  0
  2  1  1  0  0  0  0
  4 31  1  6  0  0  0
 29 32  2  0  0  0  0
  7  8  1  0  0  0  0
 12 17  1  0  0  0  0
 13 14  1  0  0  0  0
 14 15  1  0  0  0  0
 32 33  1  0  0  0  0
 33 34  2  0  0  0  0
 34 35  1  0  0  0  0
 35 29  1  0  0  0  0
 15 16  1  0  0  0  0
 34 36  1  0  0  0  0
 16 17  2  0  0  0  0
  9 37  1  0  0  0  0
  8  9  1  0  0  0  0
 21 38  1  0  0  0  0
 17 18  1  0  0  0  0
 38 39  2  0  0  0  0
  1  6  1  0  0  0  0
 39 40  1  0  0  0  0
 15 19  2  0  0  0  0
 40 41  2  0  0  0  0
  3  2  1  0  0  0  0
 41 42  1  0  0  0  0
 16 20  1  0  0  0  0
 42 43  2  0  0  0  0
  8 10  2  0  0  0  0
 43 44  1  0  0  0  0
 20 21  1  0  0  0  0
 44 45  2  0  0  0  0
 45 40  1  0  0  0  0
  9 13  2  0  0  0  0
 44 46  1  0  0  0  0
 21 22  2  0  0  0  0
 46 47  1  0  0  0  0
 11 10  1  0  0  0  0
 43 48  1  0  0  0  0
M  END
> <From> 
www.bindingDB.org

> <BindingDB Reactant_set_id>
50607672

> <Ligand InChI>
InChI=1S/C33H33ClN2O12/c1-15-6-10-18(35-15)30(41)47-28-26(40)32(48-33(2,3)29(28)44-5)45-20-12-9-17-25(39)24(31(42)46-27(17)23(20)34)36-22(38)13-8-16-7-11-19(37)21(14-16)43-4/h6-14,26,28-29,32,35,37,39-40H,1-5H3,(H,36,38)/b13-8+/t26-,28+,29-,32-/m1/s1

> <Ligand InChI Key>
NTHCLQNRAKGDET-NQRCANERSA-N

> <BindingDB MonomerID>
50330302

> <BindingDB Ligand Name>
(3R,4S,5R,6S)-6-(8-chloro-4-hydroxy-3-((E)-3-(4-hydroxy-3-methoxyphenyl)acrylamido)-2-oxo-2H-chromen-7-yloxy)-5-hydroxy-3-methoxy-2,2-dimethyltetrahydro-2H-pyran-4-yl 5-methyl-1H-pyrrole-2-carboxylate::CHEMBL1275891

> <Target Name Assigned by Curator or DataSource>
DNA Gyrase Subunit B

> <Target Source Organism According to Curator or DataSource>
Escherichia coli

> <Ki (nM)>


> <IC50 (nM)>
 263

> <Kd (nM)>


> <EC50 (nM)>


> <kon (M-1-s-1)>


> <koff (s-1)>


> <pH>


> <Temp C>


> <Curation/DataSource>
ChEMBL

> <Article DOI>
10.1128/AAC.01235-07

> <PMID>
18347114

> <PubChem AID>


> <Patent Number>


> <Authors>
Anderle, C; Stieger, M; Burrell, M; Reinelt, S; Maxwell, A; Page, M; Heide, L

> <Institution>
Universit&#228;t T&#252;bingen

> <Link to Ligand in BindingDB>
http://www.bindingdb.org/bind/chemsearch/marvin/MolStructure.jsp?monomerid=50330302

> <Link to Ligand-Target Pair in BindingDB>
http://www.bindingdb.org/jsp/dbsearch/PrimarySearch_ki.jsp?energyterm=kJ/mole&tag=pol&polymerid=2630&target=DNA+Gyrase+Subunit+B&column=ki&startPg=0&Increment=50&submit=Search

> <Link to Ligand-Target Pair in BindingDB>
http://www.bindingdb.org/jsp/dbsearch/PrimarySearch_ki.jsp?energyterm=kJ/mole&tag=r21&monomerid=50330302&enzyme=DNA+Gyrase+Subunit+B&column=ki&startPg=0&Increment=50&submit=Search

> <Ligand HET ID in PDB>


> <PDB ID(s) for Ligand-Target Complex>


> <PubChem CID>
54695811

> <PubChem SID>
123109417

> <ChEBI ID of Ligand>


> <ChEMBL ID of Ligand>
CHEMBL1275891

> <DrugBank ID of Ligand>


> <IUPHAR_GRAC ID of Ligand>


> <KEGG ID of Ligand>


> <ZINC ID of Ligand>
ZINC72138026

> <Number of Protein Chains in Target (>1 implies a multichain complex)>
1

> <BindingDB Target Chain Sequence>
MSNSYDSSSIKVLKGLDAVRKRPGMYIGDTDDGTGLHHMVFEVVDNAIDEALAGHCKEII
VTIHADNSVSVQDDGRGIPTGIHPEEGVSAAEVIMTVLHAGGKFDDNSYKVSGGLHGVGV
SVVNALSQKLELVIQREGKIHRQIYEHGVPQAPLAVTGETEKTGTMVRFWPSLETFTNVT
EFEYEILAKRLRELSFLNSGVSIRLRDKRDGKEDHFHYEGGIKAFVEYLNKNKTPIHPNI
FYFSTEKDGIGVEVALQWNDGFQENIYCFTNNIPQRDGGTHLAGFRAAMTRTLNAYMDKE
GYSKKAKVSATGDDAREGLIAVVSVKVPDPKFSSQTKDKLVSSEVKSAVEQQMNELLAEY
LLENPTDAKIVVGKIIDAARAREAARRAREMTRRKGALDLAGLPGKLADCQERDPALSEL
YLVEGDSAGGSAKQGRNRKNQAILPLKGKILNVEKARFDKMLSSQEVATLITALGCGIGR
DEYNPDKLRYHSIIIMTDADVDGSHIRTLLLTFFYRQMPEIVERGHVYIAQPPLYKVKKG
KQEQYIKDDEAMDQYQISIALDGATLHTNASAPALAGEALEKLVSEYNATQKMINRMERR
YPKAMLKELIYQPTLTEADLSDEQTVTRWVNALVSELNDKEQHGSQWKFDVHTNAEQNLF
EPIVRVRTHGVDTDYPLDHEFITGGEYRRICTLGEKLRGLLEEDAFIERGERRQPVASFE
QALDWLVKESRRGLSIQRYKGLGEMNPEQLWETTMDPESRRMLRVTVKDAIAADQLFTTL
MGDAVEPRRAFIEENALKAANIDI

> <PDB ID(s) of Target Chain>
1KZN,3G7E,3NUH,4DUH,4HYP,4KFG,4PRV,4PRX,4PU9,4WUB,4WUC,4WUD,4XTJ,4ZVI,5L3J,5MMN,5MMO,5MMP,5Z4H,5Z4O,5Z9B,5Z9E,5Z9F,5Z9L,5Z9M,5Z9N,5Z9Q,6ENG,6F86,6F8J,6F94,6F96

> <UniProt (SwissProt) Recommended Name of Target Chain>
DNA gyrase subunit B

> <UniProt (SwissProt) Entry Name of Target Chain>
GYRB_ECOLI

> <UniProt (SwissProt) Primary ID of Target Chain>
P0AES6

> <UniProt (SwissProt) Secondary ID(s) of Target Chain>
O08438,P06982,Q2M811

> <UniProt (SwissProt) Alternative ID(s) of Target Chain>


> <UniProt (TrEMBL) Submitted Name of Target Chain>


> <UniProt (TrEMBL) Entry Name of Target Chain>


> <UniProt (TrEMBL) Primary ID of Target Chain>


> <UniProt (TrEMBL) Secondary ID(s) of Target Chain>


> <UniProt (TrEMBL) Alternative ID(s) of Target Chain>


$$$$

  SciTegic12131614182D

 21 24  0  0  0  0            999 V2000
   -1.0028    1.5132    0.0000 N   0  0
   -2.3155    0.7475    0.0000 C   0  0
   -2.3155   -0.7475    0.0000 C   0  0
   -1.0028   -1.5132    0.0000 C   0  0
    0.2917    0.7475    0.0000 C   0  0
    0.2917   -0.7475    0.0000 C   0  0
    1.7138   -1.2033    0.0000 C   0  0
    2.5889    0.0182    0.0000 N   0  0
    1.7138    1.2033    0.0000 N   0  0
    2.1852   -2.6281    0.0000 C   0  0
   -3.3560    1.3452    0.0000 O   0  0
    3.5643   -3.1717    0.0000 C   0  0
    3.4539   -4.6676    0.0000 N   0  0
    1.9971   -5.0249    0.0000 C   0  0
    1.2071   -3.7498    0.0000 S   0  0
    1.4296   -6.4142    0.0000 C   0  0
    2.2547   -7.6609    0.0000 C   0  0
    1.5846   -9.0029    0.0000 C   0  0
    0.0873   -9.0936    0.0000 C   0  0
   -0.7398   -7.8422    0.0000 N   0  0
   -0.0697   -6.5002    0.0000 C   0  0
  6  4  1  0
  5  1  1  0
  1  2  1  0
  2  3  1  0
  3  4  2  0
  5  6  2  0
  6  7  1  0
  7  8  2  0
  8  9  1  0
  9  5  1  0
  7 10  1  0
  2 11  2  0
 10 12  2  0
 12 13  1  0
 13 14  2  0
 14 15  1  0
 15 10  1  0
 16 17  2  0
 17 18  1  0
 18 19  2  0
 19 20  1  0
 20 21  2  0
 21 16  1  0
 14 16  1  0
M  END
> <From> 
www.bindingDB.org

> <BindingDB Reactant_set_id>
50498701

> <Ligand InChI>
InChI=1S/C14H9N5OS/c20-11-4-3-9-12(18-19-13(9)17-11)10-7-16-14(21-10)8-2-1-5-15-6-8/h1-7H,(H2,17,18,19,20)

> <Ligand InChI Key>
JCIZDZAGSUATFA-UHFFFAOYSA-N

> <BindingDB MonomerID>
50143184

> <BindingDB Ligand Name>
CHEMBL3759063

> <Target Name Assigned by Curator or DataSource>
DNA gyrase

> <Target Source Organism According to Curator or DataSource>
Staphylococcus aureus

> <Ki (nM)>


> <IC50 (nM)>
 270

> <Kd (nM)>


> <EC50 (nM)>


> <kon (M-1-s-1)>


> <koff (s-1)>


> <pH>


> <Temp C>


> <Curation/DataSource>
ChEMBL

> <Article DOI>
10.1021/acsmedchemlett.5b00368

> <PMID>
27096044

> <PubChem AID>


> <Patent Number>


> <Authors>
Cross, JB; Zhang, J; Yang, Q; Mesleh, MF; Romero, JA; Wang, B; Bevan, D; Poutsiaka, KM; Epie, F; Moy, T; Daniel, A; Shotwell, J; Chamberlain, B; Carter, N; Andersen, O; Barker, J; Ryan, MD; Metcalf, CA; Silverman, J; Nguyen, K; Lippa, B; Dolle, RE

> <Institution>
Cubist Pharmaceuticals, Inc.

> <Link to Ligand in BindingDB>
http://www.bindingdb.org/bind/chemsearch/marvin/MolStructure.jsp?monomerid=50143184

> <Link to Ligand-Target Pair in BindingDB>
http://www.bindingdb.org/jsp/dbsearch/PrimarySearch_ki.jsp?energyterm=kJ/mole&tag=pol&polymerid=2626&target=DNA+gyrase&column=ki&startPg=0&Increment=50&submit=Search

> <Link to Ligand-Target Pair in BindingDB>
http://www.bindingdb.org/jsp/dbsearch/PrimarySearch_ki.jsp?energyterm=kJ/mole&tag=r21&monomerid=50143184&enzyme=DNA+gyrase&column=ki&startPg=0&Increment=50&submit=Search

> <Ligand HET ID in PDB>


> <PDB ID(s) for Ligand-Target Complex>


> <PubChem CID>
117072443

> <PubChem SID>
336952903

> <ChEBI ID of Ligand>


> <ChEMBL ID of Ligand>


> <DrugBank ID of Ligand>


> <IUPHAR_GRAC ID of Ligand>


> <KEGG ID of Ligand>


> <ZINC ID of Ligand>


> <Number of Protein Chains in Target (>1 implies a multichain complex)>
1

> <BindingDB Target Chain Sequence>
MVTALSDVNNTDNYGAGQIQVLEGLEAVRKRPGMYIGSTSERGLHHLVWEIVDNSIDEALAGYANQIEVVIEKDNWIKVTDNGRGIPVDIQEKMGRPAVEVILTVLHAGGKFGGGGYKVSGGLHGVGSSVVNALSQDLEVYVHRNETIYHQAYKKGVPQFDLKEVGTTDKTGTVIRFKADGEIFTETTVYNYETLQQRIRELAFLNKGIQITLRDERDEENVREDSYHYEGGIKSYVELLNENKEPIHDEPIYIHQSKDDIEVEIAIQYNSGYATNLLTYANNIHTYEGGTHEDGFKRALTRVLNSYGLSSKIMKEEKDRLSGEDTREGMTAIISIKHGDPQFEGQTKTKLGNSEVRQVVDKLFSEHFERFLYENPQVARTVVEKGIMAARARVAAKKAREVTRRKSALDVASLPGKLADCSSKSPEECEIFLVEGDSAGGSTKSGRDSRTQAILPLRGKILNVEKARLDRILNNNEIRQMITAFGTGIGGDFDLAKARYHKIVIMTDADVDGAHIRTLLLTFFYRFMRPLIEAGYVYIAQPPLYKLTQGKQKYYVYNDRELDKLKSELNPTPKWSIARYKGLGEMNADQLWETTMNPEHRALLQVKLEDAIEADQTFEMLMGDVVENRRQFIEDNAVYANLDF

> <PDB ID(s) of Target Chain>


> <UniProt (SwissProt) Recommended Name of Target Chain>
DNA gyrase subunit B

> <UniProt (SwissProt) Entry Name of Target Chain>
GYRB_STAAU

> <UniProt (SwissProt) Primary ID of Target Chain>
P0A0K8

> <UniProt (SwissProt) Secondary ID(s) of Target Chain>
P20832

> <UniProt (SwissProt) Alternative ID(s) of Target Chain>


> <UniProt (TrEMBL) Submitted Name of Target Chain>


> <UniProt (TrEMBL) Entry Name of Target Chain>


> <UniProt (TrEMBL) Primary ID of Target Chain>


> <UniProt (TrEMBL) Secondary ID(s) of Target Chain>


> <UniProt (TrEMBL) Alternative ID(s) of Target Chain>


$$$$

  SciTegic09261414462D

 20 21  0  0  0  0            999 V2000
   32.9875  -15.0189    0.0000 C   0  0
   32.9864  -15.8385    0.0000 C   0  0
   33.6944  -16.2474    0.0000 C   0  0
   34.4041  -15.8380    0.0000 C   0  0
   34.4013  -15.0153    0.0000 C   0  0
   33.6926  -14.6101    0.0000 N   0  0
   32.2797  -14.6105    0.0000 N   0  0
   31.5721  -15.0193    0.0000 C   0  0
   30.8643  -14.6109    0.0000 N   0  0
   31.5723  -15.8365    0.0000 O   0  0
   30.1567  -15.0196    0.0000 C   0  0
   29.4489  -14.6112    0.0000 C   0  0
   35.1129  -16.2431    0.0000 C   0  0
   35.1997  -17.0556    0.0000 N   0  0
   35.9993  -17.2243    0.0000 C   0  0
   36.4068  -16.5159    0.0000 C   0  0
   35.8589  -15.9096    0.0000 S   0  0
   37.2194  -16.4291    0.0000 C   0  0
   37.7008  -17.0895    0.0000 O   0  0
   37.5505  -15.6820    0.0000 O   0  0
  1  2  2  0
  2  3  1  0
  3  4  2  0
  4  5  1  0
  5  6  2  0
  6  1  1  0
  1  7  1  0
  7  8  1  0
  8  9  1  0
  8 10  2  0
  9 11  1  0
 11 12  1  0
 13 14  2  0
 14 15  1  0
 15 16  2  0
 16 17  1  0
 17 13  1  0
  4 13  1  0
 16 18  1  0
 18 19  1  0
 18 20  2  0
M  END
> <From> 
www.bindingDB.org

> <BindingDB Reactant_set_id>
50083259

> <Ligand InChI>
InChI=1S/C12H12N4O3S/c1-2-13-12(19)16-9-4-3-7(5-14-9)10-15-6-8(20-10)11(17)18/h3-6H,2H2,1H3,(H,17,18)(H2,13,14,16,19)

> <Ligand InChI Key>
XHAPLTBTYBDEGO-UHFFFAOYSA-N

> <BindingDB MonomerID>
50006555

> <BindingDB Ligand Name>
CHEMBL3235075

> <Target Name Assigned by Curator or DataSource>
DNA Gyrase Subunit B

> <Target Source Organism According to Curator or DataSource>
Staphylococcus aureus

> <Ki (nM)>


> <IC50 (nM)>
 270

> <Kd (nM)>


> <EC50 (nM)>


> <kon (M-1-s-1)>


> <koff (s-1)>


> <pH>


> <Temp C>


> <Curation/DataSource>
ChEMBL

> <Article DOI>
10.1021/jm401208b

> <PMID>
24098982

> <PubChem AID>


> <Patent Number>


> <Authors>
Basarab, GS; Basarab, GS; Boriack-Sjodin, PA; Boriack-Sjodin, PA; Illingworth, R; Illingworth, R; Manchester, JI; Manchester, JI; Dangel, B; Dangel, B; Sriram, S; Sriram, S

> <Institution>
AstraZeneca R&amp;D Boston

> <Link to Ligand in BindingDB>
http://www.bindingdb.org/bind/chemsearch/marvin/MolStructure.jsp?monomerid=50006555

> <Link to Ligand-Target Pair in BindingDB>
http://www.bindingdb.org/jsp/dbsearch/PrimarySearch_ki.jsp?energyterm=kJ/mole&tag=pol&polymerid=2626&target=DNA+Gyrase+Subunit+B&column=ki&startPg=0&Increment=50&submit=Search

> <Link to Ligand-Target Pair in BindingDB>
http://www.bindingdb.org/jsp/dbsearch/PrimarySearch_ki.jsp?energyterm=kJ/mole&tag=r21&monomerid=50006555&enzyme=DNA+Gyrase+Subunit+B&column=ki&startPg=0&Increment=50&submit=Search

> <Ligand HET ID in PDB>


> <PDB ID(s) for Ligand-Target Complex>


> <PubChem CID>
25126134

> <PubChem SID>
103919956

> <ChEBI ID of Ligand>


> <ChEMBL ID of Ligand>
CHEMBL3235075

> <DrugBank ID of Ligand>


> <IUPHAR_GRAC ID of Ligand>


> <KEGG ID of Ligand>


> <ZINC ID of Ligand>
ZINC26380347

> <Number of Protein Chains in Target (>1 implies a multichain complex)>
1

> <BindingDB Target Chain Sequence>
MVTALSDVNNTDNYGAGQIQVLEGLEAVRKRPGMYIGSTSERGLHHLVWEIVDNSIDEALAGYANQIEVVIEKDNWIKVTDNGRGIPVDIQEKMGRPAVEVILTVLHAGGKFGGGGYKVSGGLHGVGSSVVNALSQDLEVYVHRNETIYHQAYKKGVPQFDLKEVGTTDKTGTVIRFKADGEIFTETTVYNYETLQQRIRELAFLNKGIQITLRDERDEENVREDSYHYEGGIKSYVELLNENKEPIHDEPIYIHQSKDDIEVEIAIQYNSGYATNLLTYANNIHTYEGGTHEDGFKRALTRVLNSYGLSSKIMKEEKDRLSGEDTREGMTAIISIKHGDPQFEGQTKTKLGNSEVRQVVDKLFSEHFERFLYENPQVARTVVEKGIMAARARVAAKKAREVTRRKSALDVASLPGKLADCSSKSPEECEIFLVEGDSAGGSTKSGRDSRTQAILPLRGKILNVEKARLDRILNNNEIRQMITAFGTGIGGDFDLAKARYHKIVIMTDADVDGAHIRTLLLTFFYRFMRPLIEAGYVYIAQPPLYKLTQGKQKYYVYNDRELDKLKSELNPTPKWSIARYKGLGEMNADQLWETTMNPEHRALLQVKLEDAIEADQTFEMLMGDVVENRRQFIEDNAVYANLDF

> <PDB ID(s) of Target Chain>


> <UniProt (SwissProt) Recommended Name of Target Chain>
DNA gyrase subunit B

> <UniProt (SwissProt) Entry Name of Target Chain>
GYRB_STAAU

> <UniProt (SwissProt) Primary ID of Target Chain>
P0A0K8

> <UniProt (SwissProt) Secondary ID(s) of Target Chain>
P20832

> <UniProt (SwissProt) Alternative ID(s) of Target Chain>


> <UniProt (TrEMBL) Submitted Name of Target Chain>


> <UniProt (TrEMBL) Entry Name of Target Chain>


> <UniProt (TrEMBL) Primary ID of Target Chain>


> <UniProt (TrEMBL) Secondary ID(s) of Target Chain>


> <UniProt (TrEMBL) Alternative ID(s) of Target Chain>


$$$$

  SciTegic09261414462D

 27 29  0  0  0  0            999 V2000
   15.7646  -27.7803    0.0000 C   0  0
   15.7635  -28.5999    0.0000 C   0  0
   16.4715  -29.0088    0.0000 C   0  0
   17.1812  -28.5994    0.0000 C   0  0
   17.1783  -27.7767    0.0000 C   0  0
   16.4697  -27.3715    0.0000 N   0  0
   15.0568  -27.3719    0.0000 N   0  0
   14.3492  -27.7807    0.0000 C   0  0
   13.6414  -27.3722    0.0000 N   0  0
   14.3494  -28.5979    0.0000 O   0  0
   12.9338  -27.7810    0.0000 C   0  0
   12.2260  -27.3726    0.0000 C   0  0
   17.8860  -29.0061    0.0000 C   0  0
   17.8859  -29.8244    0.0000 C   0  0
   18.5935  -30.2318    0.0000 N   0  0
   19.3015  -29.8221    0.0000 C   0  0
   19.2976  -29.0007    0.0000 C   0  0
   18.5895  -28.5970    0.0000 C   0  0
   20.0032  -28.5885    0.0000 C   0  0
   20.7130  -28.9934    0.0000 O   0  0
   19.9990  -27.7713    0.0000 O   0  0
   16.4732  -29.8239    0.0000 C   0  0
   15.7637  -30.2317    0.0000 C   0  0
   15.7632  -31.0481    0.0000 N   0  0
   16.4713  -31.4577    0.0000 C   0  0
   17.1815  -31.0449    0.0000 C   0  0
   17.1785  -30.2298    0.0000 C   0  0
  1  2  2  0
  2  3  1  0
  3  4  2  0
  4  5  1  0
  5  6  2  0
  6  1  1  0
  1  7  1  0
  7  8  1  0
  8  9  1  0
  8 10  2  0
  9 11  1  0
 11 12  1  0
 13 14  2  0
 14 15  1  0
 15 16  2  0
 16 17  1  0
 17 18  2  0
 18 13  1  0
  4 13  1  0
 17 19  1  0
 19 20  1  0
 19 21  2  0
 22 23  2  0
 23 24  1  0
 24 25  2  0
 25 26  1  0
 26 27  2  0
 27 22  1  0
  3 22  1  0
M  END
> <From> 
www.bindingDB.org

> <BindingDB Reactant_set_id>
50083266

> <Ligand InChI>
InChI=1S/C19H17N5O3/c1-2-22-19(27)24-17-7-15(12-4-3-5-20-8-12)16(11-23-17)13-6-14(18(25)26)10-21-9-13/h3-11H,2H2,1H3,(H,25,26)(H2,22,23,24,27)

> <Ligand InChI Key>
NPRNVMAREMYRDW-UHFFFAOYSA-N

> <BindingDB MonomerID>
50006562

> <BindingDB Ligand Name>
CHEMBL3235082

> <Target Name Assigned by Curator or DataSource>
DNA Gyrase Subunit B

> <Target Source Organism According to Curator or DataSource>
Staphylococcus aureus

> <Ki (nM)>


> <IC50 (nM)>
 270

> <Kd (nM)>


> <EC50 (nM)>


> <kon (M-1-s-1)>


> <koff (s-1)>


> <pH>


> <Temp C>


> <Curation/DataSource>
ChEMBL

> <Article DOI>
10.1021/jm401208b

> <PMID>
24098982

> <PubChem AID>


> <Patent Number>


> <Authors>
Basarab, GS; Basarab, GS; Boriack-Sjodin, PA; Boriack-Sjodin, PA; Illingworth, R; Illingworth, R; Manchester, JI; Manchester, JI; Dangel, B; Dangel, B; Sriram, S; Sriram, S

> <Institution>
AstraZeneca R&amp;D Boston

> <Link to Ligand in BindingDB>
http://www.bindingdb.org/bind/chemsearch/marvin/MolStructure.jsp?monomerid=50006562

> <Link to Ligand-Target Pair in BindingDB>
http://www.bindingdb.org/jsp/dbsearch/PrimarySearch_ki.jsp?energyterm=kJ/mole&tag=pol&polymerid=2626&target=DNA+Gyrase+Subunit+B&column=ki&startPg=0&Increment=50&submit=Search

> <Link to Ligand-Target Pair in BindingDB>
http://www.bindingdb.org/jsp/dbsearch/PrimarySearch_ki.jsp?energyterm=kJ/mole&tag=r21&monomerid=50006562&enzyme=DNA+Gyrase+Subunit+B&column=ki&startPg=0&Increment=50&submit=Search

> <Ligand HET ID in PDB>


> <PDB ID(s) for Ligand-Target Complex>


> <PubChem CID>
59208362

> <PubChem SID>
103919963

> <ChEBI ID of Ligand>


> <ChEMBL ID of Ligand>
CHEMBL3235082

> <DrugBank ID of Ligand>


> <IUPHAR_GRAC ID of Ligand>


> <KEGG ID of Ligand>


> <ZINC ID of Ligand>
ZINC26376012

> <Number of Protein Chains in Target (>1 implies a multichain complex)>
1

> <BindingDB Target Chain Sequence>
MVTALSDVNNTDNYGAGQIQVLEGLEAVRKRPGMYIGSTSERGLHHLVWEIVDNSIDEALAGYANQIEVVIEKDNWIKVTDNGRGIPVDIQEKMGRPAVEVILTVLHAGGKFGGGGYKVSGGLHGVGSSVVNALSQDLEVYVHRNETIYHQAYKKGVPQFDLKEVGTTDKTGTVIRFKADGEIFTETTVYNYETLQQRIRELAFLNKGIQITLRDERDEENVREDSYHYEGGIKSYVELLNENKEPIHDEPIYIHQSKDDIEVEIAIQYNSGYATNLLTYANNIHTYEGGTHEDGFKRALTRVLNSYGLSSKIMKEEKDRLSGEDTREGMTAIISIKHGDPQFEGQTKTKLGNSEVRQVVDKLFSEHFERFLYENPQVARTVVEKGIMAARARVAAKKAREVTRRKSALDVASLPGKLADCSSKSPEECEIFLVEGDSAGGSTKSGRDSRTQAILPLRGKILNVEKARLDRILNNNEIRQMITAFGTGIGGDFDLAKARYHKIVIMTDADVDGAHIRTLLLTFFYRFMRPLIEAGYVYIAQPPLYKLTQGKQKYYVYNDRELDKLKSELNPTPKWSIARYKGLGEMNADQLWETTMNPEHRALLQVKLEDAIEADQTFEMLMGDVVENRRQFIEDNAVYANLDF

> <PDB ID(s) of Target Chain>


> <UniProt (SwissProt) Recommended Name of Target Chain>
DNA gyrase subunit B

> <UniProt (SwissProt) Entry Name of Target Chain>
GYRB_STAAU

> <UniProt (SwissProt) Primary ID of Target Chain>
P0A0K8

> <UniProt (SwissProt) Secondary ID(s) of Target Chain>
P20832

> <UniProt (SwissProt) Alternative ID(s) of Target Chain>


> <UniProt (TrEMBL) Submitted Name of Target Chain>


> <UniProt (TrEMBL) Entry Name of Target Chain>


> <UniProt (TrEMBL) Primary ID of Target Chain>


> <UniProt (TrEMBL) Secondary ID(s) of Target Chain>


> <UniProt (TrEMBL) Alternative ID(s) of Target Chain>


$$$$

  Mrv0541 11231413392D          

 46 50  0  0  0  0            999 V2000
   11.4481   -9.3220    0.0000 C   0  0  0  0  0  0  0  0  0  0  0  0
   10.7222   -8.9205    0.0000 C   0  0  1  0  0  0  0  0  0  0  0  0
   10.0154   -9.3460    0.0000 C   0  0  2  0  0  0  0  0  0  0  0  0
   10.0283  -10.1750    0.0000 C   0  0  2  0  0  0  0  0  0  0  0  0
   10.7542  -10.5765    0.0000 C   0  0  1  0  0  0  0  0  0  0  0  0
   11.4672  -10.1491    0.0000 O   0  0  0  0  0  0  0  0  0  0  0  0
   10.7685  -11.4014    0.0000 O   0  0  0  0  0  0  0  0  0  0  0  0
   11.4883  -11.8126    0.0000 C   0  0  0  0  0  0  0  0  0  0  0  0
   11.4876  -12.6372    0.0000 C   0  0  0  0  0  0  0  0  0  0  0  0
   12.2031  -11.3984    0.0000 C   0  0  0  0  0  0  0  0  0  0  0  0
   12.9176  -11.8161    0.0000 C   0  0  0  0  0  0  0  0  0  0  0  0
   12.9158  -12.6408    0.0000 C   0  0  0  0  0  0  0  0  0  0  0  0
   12.2005  -13.0523    0.0000 C   0  0  0  0  0  0  0  0  0  0  0  0
   12.1993  -13.8731    0.0000 O   0  0  0  0  0  0  0  0  0  0  0  0
   12.9117  -14.2884    0.0000 C   0  0  0  0  0  0  0  0  0  0  0  0
   13.6270  -13.8768    0.0000 C   0  0  0  0  0  0  0  0  0  0  0  0
   13.6298  -13.0499    0.0000 C   0  0  0  0  0  0  0  0  0  0  0  0
   14.3444  -12.6375    0.0000 O   0  0  0  0  0  0  0  0  0  0  0  0
   12.9093  -15.1133    0.0000 O   0  0  0  0  0  0  0  0  0  0  0  0
   14.3403  -14.2910    0.0000 N   0  0  0  0  0  0  0  0  0  0  0  0
   14.3383  -15.1160    0.0000 C   0  0  0  0  0  0  0  0  0  0  0  0
   13.6228  -15.5268    0.0000 O   0  0  0  0  0  0  0  0  0  0  0  0
   12.2756   -9.3032    0.0000 C   0  0  0  0  0  0  0  0  0  0  0  0
   11.4372   -8.4990    0.0000 C   0  0  0  0  0  0  0  0  0  0  0  0
   10.7070   -8.0956    0.0000 O   0  0  0  0  0  0  0  0  0  0  0  0
   11.4139   -7.6702    0.0000 C   0  0  0  0  0  0  0  0  0  0  0  0
    9.2941   -8.9457    0.0000 O   0  0  0  0  0  0  0  0  0  0  0  0
    9.2800   -8.1208    0.0000 C   0  0  0  0  0  0  0  0  0  0  0  0
    8.5591   -7.7202    0.0000 C   0  0  0  0  0  0  0  0  0  0  0  0
    9.9874   -7.6963    0.0000 O   0  0  0  0  0  0  0  0  0  0  0  0
    9.3209  -10.5995    0.0000 O   0  0  0  0  0  0  0  0  0  0  0  0
    8.3232   -6.9267    0.0000 C   0  0  0  0  0  0  0  0  0  0  0  0
    7.4986   -6.9036    0.0000 C   0  0  0  0  0  0  0  0  0  0  0  0
    7.2217   -7.6808    0.0000 C   0  0  0  0  0  0  0  0  0  0  0  0
    7.8754   -8.1841    0.0000 N   0  0  0  0  0  0  0  0  0  0  0  0
    6.5037   -8.0850    0.0000 C   0  0  0  0  0  0  0  0  0  0  0  0
   15.0517  -15.5304    0.0000 C   0  0  0  0  0  0  0  0  0  0  0  0
   15.0497  -16.3554    0.0000 C   0  0  0  0  0  0  0  0  0  0  0  0
   15.7631  -16.7697    0.0000 C   0  0  0  0  0  0  0  0  0  0  0  0
   15.7573  -17.5922    0.0000 C   0  0  0  0  0  0  0  0  0  0  0  0
   16.4699  -18.0064    0.0000 C   0  0  0  0  0  0  0  0  0  0  0  0
   17.1864  -17.5957    0.0000 C   0  0  0  0  0  0  0  0  0  0  0  0
   17.1858  -16.7664    0.0000 C   0  0  0  0  0  0  0  0  0  0  0  0
   16.4726  -16.3559    0.0000 C   0  0  0  0  0  0  0  0  0  0  0  0
   17.9004  -18.0090    0.0000 O   0  0  0  0  0  0  0  0  0  0  0  0
   17.8998  -16.3531    0.0000 Cl  0  0  0  0  0  0  0  0  0  0  0  0
 21 22  2  0  0  0  0
 11 10  1  0  0  0  0
  1 23  1  0  0  0  0
 11 12  2  0  0  0  0
  1 24  1  0  0  0  0
  3  4  1  0  0  0  0
  2 25  1  1  0  0  0
 12 13  1  0  0  0  0
 25 26  1  0  0  0  0
  4  5  1  0  0  0  0
  3 27  1  6  0  0  0
  5  6  1  0  0  0  0
 27 28  1  0  0  0  0
 28 29  1  0  0  0  0
  5  7  1  1  0  0  0
 28 30  2  0  0  0  0
  2  1  1  0  0  0  0
  4 31  1  6  0  0  0
 29 32  2  0  0  0  0
  7  8  1  0  0  0  0
 12 17  1  0  0  0  0
 13 14  1  0  0  0  0
 14 15  1  0  0  0  0
 32 33  1  0  0  0  0
 33 34  2  0  0  0  0
 34 35  1  0  0  0  0
 35 29  1  0  0  0  0
 15 16  1  0  0  0  0
 34 36  1  0  0  0  0
 16 17  2  0  0  0  0
 21 37  1  0  0  0  0
  8  9  1  0  0  0  0
 37 38  2  0  0  0  0
 17 18  1  0  0  0  0
 38 39  1  0  0  0  0
  1  6  1  0  0  0  0
 39 40  2  0  0  0  0
 15 19  2  0  0  0  0
 40 41  1  0  0  0  0
  3  2  1  0  0  0  0
 41 42  2  0  0  0  0
 16 20  1  0  0  0  0
 42 43  1  0  0  0  0
  8 10  2  0  0  0  0
 43 44  2  0  0  0  0
 44 39  1  0  0  0  0
 20 21  1  0  0  0  0
 42 45  1  0  0  0  0
  9 13  2  0  0  0  0
 43 46  1  0  0  0  0
M  END
> <From> 
www.bindingDB.org

> <BindingDB Reactant_set_id>
50607671

> <Ligand InChI>
InChI=1S/C32H31ClN2O11/c1-15-5-10-20(34-15)29(40)45-27-26(39)31(46-32(2,3)28(27)42-4)43-17-8-9-18-22(14-17)44-30(41)24(25(18)38)35-23(37)12-7-16-6-11-21(36)19(33)13-16/h5-14,26-28,31,34,36,38-39H,1-4H3,(H,35,37)/b12-7+/t26-,27+,28-,31-/m1/s1

> <Ligand InChI Key>
MPBALRDMSMLJTG-VIKLJHTCSA-N

> <BindingDB MonomerID>
50330301

> <BindingDB Ligand Name>
(3R,4S,5R,6R)-6-(3-((E)-3-(3-chloro-4-hydroxyphenyl)acrylamido)-4-hydroxy-2-oxo-2H-chromen-7-yloxy)-5-hydroxy-3-methoxy-2,2-dimethyltetrahydro-2H-pyran-4-yl 5-methyl-1H-pyrrole-2-carboxylate::CHEMBL1275892

> <Target Name Assigned by Curator or DataSource>
DNA Gyrase Subunit B

> <Target Source Organism According to Curator or DataSource>
Escherichia coli

> <Ki (nM)>


> <IC50 (nM)>
 276

> <Kd (nM)>


> <EC50 (nM)>


> <kon (M-1-s-1)>


> <koff (s-1)>


> <pH>


> <Temp C>


> <Curation/DataSource>
ChEMBL

> <Article DOI>
10.1128/AAC.01235-07

> <PMID>
18347114

> <PubChem AID>


> <Patent Number>


> <Authors>
Anderle, C; Stieger, M; Burrell, M; Reinelt, S; Maxwell, A; Page, M; Heide, L

> <Institution>
Universit&#228;t T&#252;bingen

> <Link to Ligand in BindingDB>
http://www.bindingdb.org/bind/chemsearch/marvin/MolStructure.jsp?monomerid=50330301

> <Link to Ligand-Target Pair in BindingDB>
http://www.bindingdb.org/jsp/dbsearch/PrimarySearch_ki.jsp?energyterm=kJ/mole&tag=pol&polymerid=2630&target=DNA+Gyrase+Subunit+B&column=ki&startPg=0&Increment=50&submit=Search

> <Link to Ligand-Target Pair in BindingDB>
http://www.bindingdb.org/jsp/dbsearch/PrimarySearch_ki.jsp?energyterm=kJ/mole&tag=r21&monomerid=50330301&enzyme=DNA+Gyrase+Subunit+B&column=ki&startPg=0&Increment=50&submit=Search

> <Ligand HET ID in PDB>


> <PDB ID(s) for Ligand-Target Complex>


> <PubChem CID>
54695813

> <PubChem SID>
123109416

> <ChEBI ID of Ligand>


> <ChEMBL ID of Ligand>
CHEMBL1275892

> <DrugBank ID of Ligand>


> <IUPHAR_GRAC ID of Ligand>


> <KEGG ID of Ligand>


> <ZINC ID of Ligand>
ZINC72138027

> <Number of Protein Chains in Target (>1 implies a multichain complex)>
1

> <BindingDB Target Chain Sequence>
MSNSYDSSSIKVLKGLDAVRKRPGMYIGDTDDGTGLHHMVFEVVDNAIDEALAGHCKEII
VTIHADNSVSVQDDGRGIPTGIHPEEGVSAAEVIMTVLHAGGKFDDNSYKVSGGLHGVGV
SVVNALSQKLELVIQREGKIHRQIYEHGVPQAPLAVTGETEKTGTMVRFWPSLETFTNVT
EFEYEILAKRLRELSFLNSGVSIRLRDKRDGKEDHFHYEGGIKAFVEYLNKNKTPIHPNI
FYFSTEKDGIGVEVALQWNDGFQENIYCFTNNIPQRDGGTHLAGFRAAMTRTLNAYMDKE
GYSKKAKVSATGDDAREGLIAVVSVKVPDPKFSSQTKDKLVSSEVKSAVEQQMNELLAEY
LLENPTDAKIVVGKIIDAARAREAARRAREMTRRKGALDLAGLPGKLADCQERDPALSEL
YLVEGDSAGGSAKQGRNRKNQAILPLKGKILNVEKARFDKMLSSQEVATLITALGCGIGR
DEYNPDKLRYHSIIIMTDADVDGSHIRTLLLTFFYRQMPEIVERGHVYIAQPPLYKVKKG
KQEQYIKDDEAMDQYQISIALDGATLHTNASAPALAGEALEKLVSEYNATQKMINRMERR
YPKAMLKELIYQPTLTEADLSDEQTVTRWVNALVSELNDKEQHGSQWKFDVHTNAEQNLF
EPIVRVRTHGVDTDYPLDHEFITGGEYRRICTLGEKLRGLLEEDAFIERGERRQPVASFE
QALDWLVKESRRGLSIQRYKGLGEMNPEQLWETTMDPESRRMLRVTVKDAIAADQLFTTL
MGDAVEPRRAFIEENALKAANIDI

> <PDB ID(s) of Target Chain>
1KZN,3G7E,3NUH,4DUH,4HYP,4KFG,4PRV,4PRX,4PU9,4WUB,4WUC,4WUD,4XTJ,4ZVI,5L3J,5MMN,5MMO,5MMP,5Z4H,5Z4O,5Z9B,5Z9E,5Z9F,5Z9L,5Z9M,5Z9N,5Z9Q,6ENG,6F86,6F8J,6F94,6F96

> <UniProt (SwissProt) Recommended Name of Target Chain>
DNA gyrase subunit B

> <UniProt (SwissProt) Entry Name of Target Chain>
GYRB_ECOLI

> <UniProt (SwissProt) Primary ID of Target Chain>
P0AES6

> <UniProt (SwissProt) Secondary ID(s) of Target Chain>
O08438,P06982,Q2M811

> <UniProt (SwissProt) Alternative ID(s) of Target Chain>


> <UniProt (TrEMBL) Submitted Name of Target Chain>


> <UniProt (TrEMBL) Entry Name of Target Chain>


> <UniProt (TrEMBL) Primary ID of Target Chain>


> <UniProt (TrEMBL) Secondary ID(s) of Target Chain>


> <UniProt (TrEMBL) Alternative ID(s) of Target Chain>


$$$$

  SciTegic12201612272D

 18 20  0  0  0  0            999 V2000
    0.2917   -0.7475    0.0000 C   0  0
    0.2917    0.7475    0.0000 C   0  0
   -1.0028    1.5132    0.0000 C   0  0
   -2.3155    0.7475    0.0000 C   0  0
   -2.3155   -0.7475    0.0000 C   0  0
   -1.0028   -1.5132    0.0000 N   0  0
    2.5889    0.0182    0.0000 N   0  0
    1.7138   -1.2033    0.0000 N   0  0
    1.7138    1.2033    0.0000 C   0  0
   -3.3560   -1.3452    0.0000 O   0  0
    3.6243    2.9682    0.0000 S   0  0
    3.7308    4.4645    0.0000 C   0  0
    2.3406    5.0280    0.0000 N   0  0
    1.3751    3.8801    0.0000 C   0  0
    2.1749    2.6315    0.0000 C   0  0
   -0.9971   -3.0138    0.0000 C   0  0
   -2.2935   -3.7700    0.0000 C   0  0
   -2.2889   -4.9699    0.0000 C   0  0
  1  2  2  0
  2  3  1  0
  3  4  2  0
  4  5  1  0
  5  6  1  0
  1  6  1  0
  7  8  1  0
  7  9  2  0
  1  8  1  0
  2  9  1  0
  5 10  2  0
 11 12  1  0
 12 13  2  0
 13 14  1  0
 14 15  2  0
 11 15  1  0
  9 15  1  0
 16 17  1  0
 17 18  1  0
  6 16  1  0
M  END
> <From> 
www.bindingDB.org

> <BindingDB Reactant_set_id>
50498684

> <Ligand InChI>
InChI=1S/C12H12N4OS/c1-2-5-16-10(17)4-3-8-11(14-15-12(8)16)9-6-13-7-18-9/h3-4,6-7H,2,5H2,1H3,(H,14,15)

> <Ligand InChI Key>
GDNLQTBJNOTQCG-UHFFFAOYSA-N

> <BindingDB MonomerID>
50173873

> <BindingDB Ligand Name>
CHEMBL3808846

> <Target Name Assigned by Curator or DataSource>
DNA gyrase

> <Target Source Organism According to Curator or DataSource>
Staphylococcus aureus

> <Ki (nM)>


> <IC50 (nM)>
 279

> <Kd (nM)>


> <EC50 (nM)>


> <kon (M-1-s-1)>


> <koff (s-1)>


> <pH>


> <Temp C>


> <Curation/DataSource>
ChEMBL

> <Article DOI>
10.1021/acsmedchemlett.5b00368

> <PMID>
27096044

> <PubChem AID>


> <Patent Number>


> <Authors>
Cross, JB; Zhang, J; Yang, Q; Mesleh, MF; Romero, JA; Wang, B; Bevan, D; Poutsiaka, KM; Epie, F; Moy, T; Daniel, A; Shotwell, J; Chamberlain, B; Carter, N; Andersen, O; Barker, J; Ryan, MD; Metcalf, CA; Silverman, J; Nguyen, K; Lippa, B; Dolle, RE

> <Institution>
Cubist Pharmaceuticals, Inc.

> <Link to Ligand in BindingDB>
http://www.bindingdb.org/bind/chemsearch/marvin/MolStructure.jsp?monomerid=50173873

> <Link to Ligand-Target Pair in BindingDB>
http://www.bindingdb.org/jsp/dbsearch/PrimarySearch_ki.jsp?energyterm=kJ/mole&tag=pol&polymerid=2626&target=DNA+gyrase&column=ki&startPg=0&Increment=50&submit=Search

> <Link to Ligand-Target Pair in BindingDB>
http://www.bindingdb.org/jsp/dbsearch/PrimarySearch_ki.jsp?energyterm=kJ/mole&tag=r21&monomerid=50173873&enzyme=DNA+gyrase&column=ki&startPg=0&Increment=50&submit=Search

> <Ligand HET ID in PDB>


> <PDB ID(s) for Ligand-Target Complex>


> <PubChem CID>
127044873

> <PubChem SID>
346548892

> <ChEBI ID of Ligand>


> <ChEMBL ID of Ligand>


> <DrugBank ID of Ligand>


> <IUPHAR_GRAC ID of Ligand>


> <KEGG ID of Ligand>


> <ZINC ID of Ligand>


> <Number of Protein Chains in Target (>1 implies a multichain complex)>
1

> <BindingDB Target Chain Sequence>
MVTALSDVNNTDNYGAGQIQVLEGLEAVRKRPGMYIGSTSERGLHHLVWEIVDNSIDEALAGYANQIEVVIEKDNWIKVTDNGRGIPVDIQEKMGRPAVEVILTVLHAGGKFGGGGYKVSGGLHGVGSSVVNALSQDLEVYVHRNETIYHQAYKKGVPQFDLKEVGTTDKTGTVIRFKADGEIFTETTVYNYETLQQRIRELAFLNKGIQITLRDERDEENVREDSYHYEGGIKSYVELLNENKEPIHDEPIYIHQSKDDIEVEIAIQYNSGYATNLLTYANNIHTYEGGTHEDGFKRALTRVLNSYGLSSKIMKEEKDRLSGEDTREGMTAIISIKHGDPQFEGQTKTKLGNSEVRQVVDKLFSEHFERFLYENPQVARTVVEKGIMAARARVAAKKAREVTRRKSALDVASLPGKLADCSSKSPEECEIFLVEGDSAGGSTKSGRDSRTQAILPLRGKILNVEKARLDRILNNNEIRQMITAFGTGIGGDFDLAKARYHKIVIMTDADVDGAHIRTLLLTFFYRFMRPLIEAGYVYIAQPPLYKLTQGKQKYYVYNDRELDKLKSELNPTPKWSIARYKGLGEMNADQLWETTMNPEHRALLQVKLEDAIEADQTFEMLMGDVVENRRQFIEDNAVYANLDF

> <PDB ID(s) of Target Chain>


> <UniProt (SwissProt) Recommended Name of Target Chain>
DNA gyrase subunit B

> <UniProt (SwissProt) Entry Name of Target Chain>
GYRB_STAAU

> <UniProt (SwissProt) Primary ID of Target Chain>
P0A0K8

> <UniProt (SwissProt) Secondary ID(s) of Target Chain>
P20832

> <UniProt (SwissProt) Alternative ID(s) of Target Chain>


> <UniProt (TrEMBL) Submitted Name of Target Chain>


> <UniProt (TrEMBL) Entry Name of Target Chain>


> <UniProt (TrEMBL) Primary ID of Target Chain>


> <UniProt (TrEMBL) Secondary ID(s) of Target Chain>


> <UniProt (TrEMBL) Alternative ID(s) of Target Chain>


$$$$

  Mrv0541 11231413392D          

 45 49  0  0  0  0            999 V2000
   -1.1330  -22.4009    0.0000 C   0  0  0  0  0  0  0  0  0  0  0  0
   -1.8588  -21.9995    0.0000 C   0  0  1  0  0  0  0  0  0  0  0  0
   -2.5656  -22.4249    0.0000 C   0  0  2  0  0  0  0  0  0  0  0  0
   -2.5527  -23.2537    0.0000 C   0  0  2  0  0  0  0  0  0  0  0  0
   -1.8268  -23.6552    0.0000 C   0  0  1  0  0  0  0  0  0  0  0  0
   -1.1139  -23.2279    0.0000 O   0  0  0  0  0  0  0  0  0  0  0  0
   -1.8125  -24.4801    0.0000 O   0  0  0  0  0  0  0  0  0  0  0  0
   -1.0929  -24.8913    0.0000 C   0  0  0  0  0  0  0  0  0  0  0  0
   -1.0935  -25.7157    0.0000 C   0  0  0  0  0  0  0  0  0  0  0  0
   -0.3780  -24.4771    0.0000 C   0  0  0  0  0  0  0  0  0  0  0  0
    0.3363  -24.8947    0.0000 C   0  0  0  0  0  0  0  0  0  0  0  0
    0.3346  -25.7193    0.0000 C   0  0  0  0  0  0  0  0  0  0  0  0
   -0.3807  -26.1309    0.0000 C   0  0  0  0  0  0  0  0  0  0  0  0
   -0.3819  -26.9514    0.0000 O   0  0  0  0  0  0  0  0  0  0  0  0
    0.3304  -27.3667    0.0000 C   0  0  0  0  0  0  0  0  0  0  0  0
    1.0457  -26.9553    0.0000 C   0  0  0  0  0  0  0  0  0  0  0  0
    1.0485  -26.1285    0.0000 C   0  0  0  0  0  0  0  0  0  0  0  0
    1.7630  -25.7160    0.0000 O   0  0  0  0  0  0  0  0  0  0  0  0
    0.3281  -28.1917    0.0000 O   0  0  0  0  0  0  0  0  0  0  0  0
    1.7590  -27.3695    0.0000 N   0  0  0  0  0  0  0  0  0  0  0  0
    1.7570  -28.1944    0.0000 C   0  0  0  0  0  0  0  0  0  0  0  0
    1.0415  -28.6051    0.0000 O   0  0  0  0  0  0  0  0  0  0  0  0
    2.4703  -28.6086    0.0000 C   0  0  0  0  0  0  0  0  0  0  0  0
    2.4653  -29.4328    0.0000 C   0  0  0  0  0  0  0  0  0  0  0  0
    3.1779  -29.8469    0.0000 C   0  0  0  0  0  0  0  0  0  0  0  0
    3.8943  -29.4362    0.0000 C   0  0  0  0  0  0  0  0  0  0  0  0
    3.8938  -28.6070    0.0000 C   0  0  0  0  0  0  0  0  0  0  0  0
    3.1806  -28.1966    0.0000 C   0  0  0  0  0  0  0  0  0  0  0  0
   -0.3056  -22.3820    0.0000 C   0  0  0  0  0  0  0  0  0  0  0  0
   -1.1439  -21.5779    0.0000 C   0  0  0  0  0  0  0  0  0  0  0  0
   -1.8740  -21.1746    0.0000 O   0  0  0  0  0  0  0  0  0  0  0  0
   -1.1672  -20.7491    0.0000 C   0  0  0  0  0  0  0  0  0  0  0  0
   -3.2868  -22.0246    0.0000 O   0  0  0  0  0  0  0  0  0  0  0  0
   -3.2600  -23.6782    0.0000 O   0  0  0  0  0  0  0  0  0  0  0  0
   -1.8089  -26.1266    0.0000 Cl  0  0  0  0  0  0  0  0  0  0  0  0
   -3.9813  -23.2779    0.0000 C   0  0  0  0  0  0  0  0  0  0  0  0
   -4.6899  -23.7034    0.0000 C   0  0  0  0  0  0  0  0  0  0  0  0
   -3.9953  -22.4532    0.0000 O   0  0  0  0  0  0  0  0  0  0  0  0
   -5.3344  -23.1956    0.0000 N   0  0  0  0  0  0  0  0  0  0  0  0
   -6.0200  -23.6544    0.0000 C   0  0  0  0  0  0  0  0  0  0  0  0
   -5.7954  -24.4483    0.0000 C   0  0  0  0  0  0  0  0  0  0  0  0
   -4.9711  -24.4798    0.0000 C   0  0  0  0  0  0  0  0  0  0  0  0
   -6.7369  -23.2400    0.0000 C   0  0  0  0  0  0  0  0  0  0  0  0
    4.6083  -29.8496    0.0000 S   0  0  0  0  0  0  0  0  0  0  0  0
    4.6073  -30.6745    0.0000 C   0  0  0  0  0  0  0  0  0  0  0  0
  9 13  2  0  0  0  0
 21 22  2  0  0  0  0
 11 10  1  0  0  0  0
 21 23  1  0  0  0  0
 11 12  2  0  0  0  0
 23 24  2  0  0  0  0
  3  4  1  0  0  0  0
 24 25  1  0  0  0  0
 12 13  1  0  0  0  0
 25 26  2  0  0  0  0
  4  5  1  0  0  0  0
 26 27  1  0  0  0  0
  5  6  1  0  0  0  0
 27 28  2  0  0  0  0
 28 23  1  0  0  0  0
  1 29  1  0  0  0  0
  5  7  1  1  0  0  0
  1 30  1  0  0  0  0
  2  1  1  0  0  0  0
  2 31  1  1  0  0  0
  7  8  1  0  0  0  0
 31 32  1  0  0  0  0
 12 17  1  0  0  0  0
  3 33  1  6  0  0  0
 13 14  1  0  0  0  0
  4 34  1  6  0  0  0
 14 15  1  0  0  0  0
  9 35  1  0  0  0  0
 15 16  1  0  0  0  0
 34 36  1  0  0  0  0
 16 17  2  0  0  0  0
 36 37  1  0  0  0  0
  8  9  1  0  0  0  0
 36 38  2  0  0  0  0
 37 39  1  0  0  0  0
 17 18  1  0  0  0  0
  1  6  1  0  0  0  0
 15 19  2  0  0  0  0
  3  2  1  0  0  0  0
 39 40  1  0  0  0  0
 40 41  2  0  0  0  0
 41 42  1  0  0  0  0
 42 37  2  0  0  0  0
 16 20  1  0  0  0  0
 40 43  1  0  0  0  0
  8 10  2  0  0  0  0
 26 44  1  0  0  0  0
 20 21  1  0  0  0  0
 44 45  1  0  0  0  0
M  END
> <From> 
www.bindingDB.org

> <BindingDB Reactant_set_id>
50607670

> <Ligand InChI>
InChI=1S/C31H31ClN2O10S/c1-14-6-12-18(33-14)28(38)43-25-23(36)26(40-4)31(2,3)44-30(25)41-19-13-11-17-22(35)21(29(39)42-24(17)20(19)32)34-27(37)15-7-9-16(45-5)10-8-15/h6-13,23,25-26,30,33,35-36H,1-5H3,(H,34,37)/t23-,25+,26+,30+/m0/s1

> <Ligand InChI Key>
IURYBCAZFAEGCQ-AUHTVUCRSA-N

> <BindingDB MonomerID>
50330300

> <BindingDB Ligand Name>
(2S,3R,4R,5R)-2-(8-chloro-4-hydroxy-3-(4-(methylthio)benzamido)-2-oxo-2H-chromen-7-yloxy)-4-hydroxy-5-methoxy-6,6-dimethyltetrahydro-2H-pyran-3-yl 5-methyl-1H-pyrrole-2-carboxylate::CHEMBL1275893

> <Target Name Assigned by Curator or DataSource>
DNA Gyrase Subunit B

> <Target Source Organism According to Curator or DataSource>
Escherichia coli

> <Ki (nM)>


> <IC50 (nM)>
 280

> <Kd (nM)>


> <EC50 (nM)>


> <kon (M-1-s-1)>


> <koff (s-1)>


> <pH>


> <Temp C>


> <Curation/DataSource>
ChEMBL

> <Article DOI>
10.1128/AAC.01235-07

> <PMID>
18347114

> <PubChem AID>


> <Patent Number>


> <Authors>
Anderle, C; Stieger, M; Burrell, M; Reinelt, S; Maxwell, A; Page, M; Heide, L

> <Institution>
Universit&#228;t T&#252;bingen

> <Link to Ligand in BindingDB>
http://www.bindingdb.org/bind/chemsearch/marvin/MolStructure.jsp?monomerid=50330300

> <Link to Ligand-Target Pair in BindingDB>
http://www.bindingdb.org/jsp/dbsearch/PrimarySearch_ki.jsp?energyterm=kJ/mole&tag=pol&polymerid=2630&target=DNA+Gyrase+Subunit+B&column=ki&startPg=0&Increment=50&submit=Search

> <Link to Ligand-Target Pair in BindingDB>
http://www.bindingdb.org/jsp/dbsearch/PrimarySearch_ki.jsp?energyterm=kJ/mole&tag=r21&monomerid=50330300&enzyme=DNA+Gyrase+Subunit+B&column=ki&startPg=0&Increment=50&submit=Search

> <Ligand HET ID in PDB>


> <PDB ID(s) for Ligand-Target Complex>


> <PubChem CID>
54730370

> <PubChem SID>
123109415

> <ChEBI ID of Ligand>


> <ChEMBL ID of Ligand>
CHEMBL1275893

> <DrugBank ID of Ligand>


> <IUPHAR_GRAC ID of Ligand>


> <KEGG ID of Ligand>


> <ZINC ID of Ligand>
ZINC72138028

> <Number of Protein Chains in Target (>1 implies a multichain complex)>
1

> <BindingDB Target Chain Sequence>
MSNSYDSSSIKVLKGLDAVRKRPGMYIGDTDDGTGLHHMVFEVVDNAIDEALAGHCKEII
VTIHADNSVSVQDDGRGIPTGIHPEEGVSAAEVIMTVLHAGGKFDDNSYKVSGGLHGVGV
SVVNALSQKLELVIQREGKIHRQIYEHGVPQAPLAVTGETEKTGTMVRFWPSLETFTNVT
EFEYEILAKRLRELSFLNSGVSIRLRDKRDGKEDHFHYEGGIKAFVEYLNKNKTPIHPNI
FYFSTEKDGIGVEVALQWNDGFQENIYCFTNNIPQRDGGTHLAGFRAAMTRTLNAYMDKE
GYSKKAKVSATGDDAREGLIAVVSVKVPDPKFSSQTKDKLVSSEVKSAVEQQMNELLAEY
LLENPTDAKIVVGKIIDAARAREAARRAREMTRRKGALDLAGLPGKLADCQERDPALSEL
YLVEGDSAGGSAKQGRNRKNQAILPLKGKILNVEKARFDKMLSSQEVATLITALGCGIGR
DEYNPDKLRYHSIIIMTDADVDGSHIRTLLLTFFYRQMPEIVERGHVYIAQPPLYKVKKG
KQEQYIKDDEAMDQYQISIALDGATLHTNASAPALAGEALEKLVSEYNATQKMINRMERR
YPKAMLKELIYQPTLTEADLSDEQTVTRWVNALVSELNDKEQHGSQWKFDVHTNAEQNLF
EPIVRVRTHGVDTDYPLDHEFITGGEYRRICTLGEKLRGLLEEDAFIERGERRQPVASFE
QALDWLVKESRRGLSIQRYKGLGEMNPEQLWETTMDPESRRMLRVTVKDAIAADQLFTTL
MGDAVEPRRAFIEENALKAANIDI

> <PDB ID(s) of Target Chain>
1KZN,3G7E,3NUH,4DUH,4HYP,4KFG,4PRV,4PRX,4PU9,4WUB,4WUC,4WUD,4XTJ,4ZVI,5L3J,5MMN,5MMO,5MMP,5Z4H,5Z4O,5Z9B,5Z9E,5Z9F,5Z9L,5Z9M,5Z9N,5Z9Q,6ENG,6F86,6F8J,6F94,6F96

> <UniProt (SwissProt) Recommended Name of Target Chain>
DNA gyrase subunit B

> <UniProt (SwissProt) Entry Name of Target Chain>
GYRB_ECOLI

> <UniProt (SwissProt) Primary ID of Target Chain>
P0AES6

> <UniProt (SwissProt) Secondary ID(s) of Target Chain>
O08438,P06982,Q2M811

> <UniProt (SwissProt) Alternative ID(s) of Target Chain>


> <UniProt (TrEMBL) Submitted Name of Target Chain>


> <UniProt (TrEMBL) Entry Name of Target Chain>


> <UniProt (TrEMBL) Primary ID of Target Chain>


> <UniProt (TrEMBL) Secondary ID(s) of Target Chain>


> <UniProt (TrEMBL) Alternative ID(s) of Target Chain>


$$$$

  Mrv0541 11231413392D          

 46 50  0  0  0  0            999 V2000
   11.4481   -9.3220    0.0000 C   0  0  0  0  0  0  0  0  0  0  0  0
   10.7222   -8.9205    0.0000 C   0  0  1  0  0  0  0  0  0  0  0  0
   10.0154   -9.3460    0.0000 C   0  0  2  0  0  0  0  0  0  0  0  0
   10.0283  -10.1750    0.0000 C   0  0  2  0  0  0  0  0  0  0  0  0
   10.7542  -10.5765    0.0000 C   0  0  1  0  0  0  0  0  0  0  0  0
   11.4672  -10.1491    0.0000 O   0  0  0  0  0  0  0  0  0  0  0  0
   10.7685  -11.4014    0.0000 O   0  0  0  0  0  0  0  0  0  0  0  0
   11.4883  -11.8126    0.0000 C   0  0  0  0  0  0  0  0  0  0  0  0
   11.4876  -12.6372    0.0000 C   0  0  0  0  0  0  0  0  0  0  0  0
   12.2031  -11.3984    0.0000 C   0  0  0  0  0  0  0  0  0  0  0  0
   12.9176  -11.8161    0.0000 C   0  0  0  0  0  0  0  0  0  0  0  0
   12.9158  -12.6408    0.0000 C   0  0  0  0  0  0  0  0  0  0  0  0
   12.2005  -13.0523    0.0000 C   0  0  0  0  0  0  0  0  0  0  0  0
   12.1993  -13.8731    0.0000 O   0  0  0  0  0  0  0  0  0  0  0  0
   12.9117  -14.2884    0.0000 C   0  0  0  0  0  0  0  0  0  0  0  0
   13.6270  -13.8768    0.0000 C   0  0  0  0  0  0  0  0  0  0  0  0
   13.6298  -13.0499    0.0000 C   0  0  0  0  0  0  0  0  0  0  0  0
   14.3444  -12.6375    0.0000 O   0  0  0  0  0  0  0  0  0  0  0  0
   12.9093  -15.1133    0.0000 O   0  0  0  0  0  0  0  0  0  0  0  0
   14.3403  -14.2910    0.0000 N   0  0  0  0  0  0  0  0  0  0  0  0
   14.3383  -15.1160    0.0000 C   0  0  0  0  0  0  0  0  0  0  0  0
   13.6228  -15.5268    0.0000 O   0  0  0  0  0  0  0  0  0  0  0  0
   12.2756   -9.3032    0.0000 C   0  0  0  0  0  0  0  0  0  0  0  0
   11.4372   -8.4990    0.0000 C   0  0  0  0  0  0  0  0  0  0  0  0
   10.7070   -8.0956    0.0000 O   0  0  0  0  0  0  0  0  0  0  0  0
   11.4139   -7.6702    0.0000 C   0  0  0  0  0  0  0  0  0  0  0  0
    9.2941   -8.9457    0.0000 O   0  0  0  0  0  0  0  0  0  0  0  0
    9.2800   -8.1208    0.0000 C   0  0  0  0  0  0  0  0  0  0  0  0
    8.5591   -7.7202    0.0000 C   0  0  0  0  0  0  0  0  0  0  0  0
    9.9874   -7.6963    0.0000 O   0  0  0  0  0  0  0  0  0  0  0  0
    9.3209  -10.5995    0.0000 O   0  0  0  0  0  0  0  0  0  0  0  0
    8.3232   -6.9267    0.0000 C   0  0  0  0  0  0  0  0  0  0  0  0
    7.4986   -6.9036    0.0000 C   0  0  0  0  0  0  0  0  0  0  0  0
    7.2217   -7.6808    0.0000 C   0  0  0  0  0  0  0  0  0  0  0  0
    7.8754   -8.1841    0.0000 N   0  0  0  0  0  0  0  0  0  0  0  0
    6.5037   -8.0850    0.0000 C   0  0  0  0  0  0  0  0  0  0  0  0
   15.0517  -15.5304    0.0000 C   0  0  0  0  0  0  0  0  0  0  0  0
   15.0497  -16.3554    0.0000 C   0  0  0  0  0  0  0  0  0  0  0  0
   15.7631  -16.7697    0.0000 C   0  0  0  0  0  0  0  0  0  0  0  0
   15.7573  -17.5922    0.0000 C   0  0  0  0  0  0  0  0  0  0  0  0
   16.4699  -18.0064    0.0000 C   0  0  0  0  0  0  0  0  0  0  0  0
   17.1864  -17.5957    0.0000 C   0  0  0  0  0  0  0  0  0  0  0  0
   17.1858  -16.7664    0.0000 C   0  0  0  0  0  0  0  0  0  0  0  0
   16.4726  -16.3559    0.0000 C   0  0  0  0  0  0  0  0  0  0  0  0
   17.9004  -18.0090    0.0000 O   0  0  0  0  0  0  0  0  0  0  0  0
   17.8998  -16.3531    0.0000 Cl  0  0  0  0  0  0  0  0  0  0  0  0
 21 22  2  0  0  0  0
 11 10  1  0  0  0  0
  1 23  1  0  0  0  0
 11 12  2  0  0  0  0
  1 24  1  0  0  0  0
  3  4  1  0  0  0  0
  2 25  1  1  0  0  0
 12 13  1  0  0  0  0
 25 26  1  0  0  0  0
  4  5  1  0  0  0  0
  3 27  1  6  0  0  0
  5  6  1  0  0  0  0
 27 28  1  0  0  0  0
 28 29  1  0  0  0  0
  5  7  1  1  0  0  0
 28 30  2  0  0  0  0
  2  1  1  0  0  0  0
  4 31  1  6  0  0  0
 29 32  2  0  0  0  0
  7  8  1  0  0  0  0
 12 17  1  0  0  0  0
 13 14  1  0  0  0  0
 14 15  1  0  0  0  0
 32 33  1  0  0  0  0
 33 34  2  0  0  0  0
 34 35  1  0  0  0  0
 35 29  1  0  0  0  0
 15 16  1  0  0  0  0
 34 36  1  0  0  0  0
 16 17  2  0  0  0  0
 21 37  1  0  0  0  0
  8  9  1  0  0  0  0
 37 38  2  0  0  0  0
 17 18  1  0  0  0  0
 38 39  1  0  0  0  0
  1  6  1  0  0  0  0
 39 40  2  0  0  0  0
 15 19  2  0  0  0  0
 40 41  1  0  0  0  0
  3  2  1  0  0  0  0
 41 42  2  0  0  0  0
 16 20  1  0  0  0  0
 42 43  1  0  0  0  0
  8 10  2  0  0  0  0
 43 44  2  0  0  0  0
 44 39  1  0  0  0  0
 20 21  1  0  0  0  0
 42 45  1  0  0  0  0
  9 13  2  0  0  0  0
 43 46  1  0  0  0  0
M  END
> <From> 
www.bindingDB.org

> <BindingDB Reactant_set_id>
50607694

> <Ligand InChI>
InChI=1S/C32H31ClN2O11/c1-15-5-10-20(34-15)29(40)45-27-26(39)31(46-32(2,3)28(27)42-4)43-17-8-9-18-22(14-17)44-30(41)24(25(18)38)35-23(37)12-7-16-6-11-21(36)19(33)13-16/h5-14,26-28,31,34,36,38-39H,1-4H3,(H,35,37)/b12-7+/t26-,27+,28-,31-/m1/s1

> <Ligand InChI Key>
MPBALRDMSMLJTG-VIKLJHTCSA-N

> <BindingDB MonomerID>
50330301

> <BindingDB Ligand Name>
(3R,4S,5R,6R)-6-(3-((E)-3-(3-chloro-4-hydroxyphenyl)acrylamido)-4-hydroxy-2-oxo-2H-chromen-7-yloxy)-5-hydroxy-3-methoxy-2,2-dimethyltetrahydro-2H-pyran-4-yl 5-methyl-1H-pyrrole-2-carboxylate::CHEMBL1275892

> <Target Name Assigned by Curator or DataSource>
DNA Gyrase Subunit B

> <Target Source Organism According to Curator or DataSource>
Escherichia coli

> <Ki (nM)>


> <IC50 (nM)>
 280

> <Kd (nM)>


> <EC50 (nM)>


> <kon (M-1-s-1)>


> <koff (s-1)>


> <pH>


> <Temp C>


> <Curation/DataSource>
ChEMBL

> <Article DOI>
10.1128/AAC.01235-07

> <PMID>
18347114

> <PubChem AID>


> <Patent Number>


> <Authors>
Anderle, C; Stieger, M; Burrell, M; Reinelt, S; Maxwell, A; Page, M; Heide, L

> <Institution>
Universit&#228;t T&#252;bingen

> <Link to Ligand in BindingDB>
http://www.bindingdb.org/bind/chemsearch/marvin/MolStructure.jsp?monomerid=50330301

> <Link to Ligand-Target Pair in BindingDB>
http://www.bindingdb.org/jsp/dbsearch/PrimarySearch_ki.jsp?energyterm=kJ/mole&tag=pol&polymerid=2630&target=DNA+Gyrase+Subunit+B&column=ki&startPg=0&Increment=50&submit=Search

> <Link to Ligand-Target Pair in BindingDB>
http://www.bindingdb.org/jsp/dbsearch/PrimarySearch_ki.jsp?energyterm=kJ/mole&tag=r21&monomerid=50330301&enzyme=DNA+Gyrase+Subunit+B&column=ki&startPg=0&Increment=50&submit=Search

> <Ligand HET ID in PDB>


> <PDB ID(s) for Ligand-Target Complex>


> <PubChem CID>
54695813

> <PubChem SID>
123109416

> <ChEBI ID of Ligand>


> <ChEMBL ID of Ligand>
CHEMBL1275892

> <DrugBank ID of Ligand>


> <IUPHAR_GRAC ID of Ligand>


> <KEGG ID of Ligand>


> <ZINC ID of Ligand>
ZINC72138027

> <Number of Protein Chains in Target (>1 implies a multichain complex)>
1

> <BindingDB Target Chain Sequence>
MSNSYDSSSIKVLKGLDAVRKRPGMYIGDTDDGTGLHHMVFEVVDNAIDEALAGHCKEII
VTIHADNSVSVQDDGRGIPTGIHPEEGVSAAEVIMTVLHAGGKFDDNSYKVSGGLHGVGV
SVVNALSQKLELVIQREGKIHRQIYEHGVPQAPLAVTGETEKTGTMVRFWPSLETFTNVT
EFEYEILAKRLRELSFLNSGVSIRLRDKRDGKEDHFHYEGGIKAFVEYLNKNKTPIHPNI
FYFSTEKDGIGVEVALQWNDGFQENIYCFTNNIPQRDGGTHLAGFRAAMTRTLNAYMDKE
GYSKKAKVSATGDDAREGLIAVVSVKVPDPKFSSQTKDKLVSSEVKSAVEQQMNELLAEY
LLENPTDAKIVVGKIIDAARAREAARRAREMTRRKGALDLAGLPGKLADCQERDPALSEL
YLVEGDSAGGSAKQGRNRKNQAILPLKGKILNVEKARFDKMLSSQEVATLITALGCGIGR
DEYNPDKLRYHSIIIMTDADVDGSHIRTLLLTFFYRQMPEIVERGHVYIAQPPLYKVKKG
KQEQYIKDDEAMDQYQISIALDGATLHTNASAPALAGEALEKLVSEYNATQKMINRMERR
YPKAMLKELIYQPTLTEADLSDEQTVTRWVNALVSELNDKEQHGSQWKFDVHTNAEQNLF
EPIVRVRTHGVDTDYPLDHEFITGGEYRRICTLGEKLRGLLEEDAFIERGERRQPVASFE
QALDWLVKESRRGLSIQRYKGLGEMNPEQLWETTMDPESRRMLRVTVKDAIAADQLFTTL
MGDAVEPRRAFIEENALKAANIDI

> <PDB ID(s) of Target Chain>
1KZN,3G7E,3NUH,4DUH,4HYP,4KFG,4PRV,4PRX,4PU9,4WUB,4WUC,4WUD,4XTJ,4ZVI,5L3J,5MMN,5MMO,5MMP,5Z4H,5Z4O,5Z9B,5Z9E,5Z9F,5Z9L,5Z9M,5Z9N,5Z9Q,6ENG,6F86,6F8J,6F94,6F96

> <UniProt (SwissProt) Recommended Name of Target Chain>
DNA gyrase subunit B

> <UniProt (SwissProt) Entry Name of Target Chain>
GYRB_ECOLI

> <UniProt (SwissProt) Primary ID of Target Chain>
P0AES6

> <UniProt (SwissProt) Secondary ID(s) of Target Chain>
O08438,P06982,Q2M811

> <UniProt (SwissProt) Alternative ID(s) of Target Chain>


> <UniProt (TrEMBL) Submitted Name of Target Chain>


> <UniProt (TrEMBL) Entry Name of Target Chain>


> <UniProt (TrEMBL) Primary ID of Target Chain>


> <UniProt (TrEMBL) Secondary ID(s) of Target Chain>


> <UniProt (TrEMBL) Alternative ID(s) of Target Chain>


$$$$

  Mrv0541 11241408262D          

 29 33  0  0  0  0            999 V2000
   -1.7348    0.7292    0.0000 C   0  0  0  0  0  0  0  0  0  0  0  0
   -1.7359   -0.0982    0.0000 C   0  0  0  0  0  0  0  0  0  0  0  0
   -1.0211   -0.5110    0.0000 C   0  0  0  0  0  0  0  0  0  0  0  0
   -1.0229    1.1420    0.0000 C   0  0  0  0  0  0  0  0  0  0  0  0
    0.4838    0.9869    0.0000 N   0  0  0  0  0  0  0  0  0  0  0  0
   -0.3075    0.7328    0.0000 C   0  0  0  0  0  0  0  0  0  0  0  0
   -0.3094   -0.0989    0.0000 N   0  0  0  0  0  0  0  0  0  0  0  0
    0.4818   -0.3563    0.0000 C   0  0  0  0  0  0  0  0  0  0  0  0
    0.9698    0.3172    0.0000 C   0  0  0  0  0  0  0  0  0  0  0  0
   -2.4472    1.1414    0.0000 C   0  0  0  0  0  0  0  0  0  0  0  0
   -2.4461    1.9675    0.0000 C   0  0  0  0  0  0  0  0  0  0  0  0
   -3.1598    2.3797    0.0000 N   0  0  0  0  0  0  0  0  0  0  0  0
   -3.8752    1.9670    0.0000 C   0  0  0  0  0  0  0  0  0  0  0  0
   -3.8723    1.1377    0.0000 C   0  0  0  0  0  0  0  0  0  0  0  0
   -3.1580    0.7292    0.0000 C   0  0  0  0  0  0  0  0  0  0  0  0
   -1.0191   -1.3333    0.0000 C   0  0  0  0  0  0  0  0  0  0  0  0
   -1.7350   -1.7456    0.0000 N   0  0  0  0  0  0  0  0  0  0  0  0
   -1.7349   -2.5698    0.0000 C   0  0  0  0  0  0  0  0  0  0  0  0
   -0.3030   -2.5654    0.0000 C   0  0  0  0  0  0  0  0  0  0  0  0
   -0.3067   -1.7425    0.0000 N   0  0  0  0  0  0  0  0  0  0  0  0
    1.7948    0.3176    0.0000 N   0  0  0  0  0  0  0  0  0  0  0  0
    2.2070    1.0322    0.0000 C   0  0  0  0  0  0  0  0  0  0  0  0
    1.7943    1.7465    0.0000 O   0  0  0  0  0  0  0  0  0  0  0  0
    3.0320    1.0325    0.0000 N   0  0  0  0  0  0  0  0  0  0  0  0
    3.4448    0.3182    0.0000 C   0  0  0  0  0  0  0  0  0  0  0  0
    3.4434   -0.5033    0.0000 C   0  0  0  0  0  0  0  0  0  0  0  0
    4.1578   -0.0905    0.0000 C   0  0  0  0  0  0  0  0  0  0  0  0
   -1.0196   -2.9827    0.0000 C   0  0  0  0  0  0  0  0  0  0  0  0
   -1.0196   -3.8077    0.0000 C   0  0  0  0  0  0  0  0  0  0  0  0
  1  2  1  0  0  0  0
 14 15  1  0  0  0  0
 15 10  2  0  0  0  0
  1 10  1  0  0  0  0
  6  4  1  0  0  0  0
  5  6  2  0  0  0  0
 16 17  2  0  0  0  0
  7  8  1  0  0  0  0
 17 18  1  0  0  0  0
  8  9  2  0  0  0  0
 18 28  2  0  0  0  0
  9  5  1  0  0  0  0
 28 19  1  0  0  0  0
  4  1  2  0  0  0  0
 19 20  2  0  0  0  0
 20 16  1  0  0  0  0
  3 16  1  0  0  0  0
  6  7  1  0  0  0  0
  9 21  1  0  0  0  0
 10 11  1  0  0  0  0
 21 22  1  0  0  0  0
 22 23  2  0  0  0  0
 11 12  2  0  0  0  0
 22 24  1  0  0  0  0
  2  3  2  0  0  0  0
 24 25  1  0  0  0  0
 12 13  1  0  0  0  0
 26 25  1  0  0  0  0
 27 26  1  0  0  0  0
 25 27  1  0  0  0  0
  3  7  1  0  0  0  0
 13 14  2  0  0  0  0
 28 29  1  0  0  0  0
M  END
> <From> 
www.bindingDB.org

> <BindingDB Reactant_set_id>
50904831

> <Ligand InChI>
InChI=1S/C21H19N7O/c1-13-9-23-20(24-10-13)17-7-15(14-3-2-6-22-11-14)8-19-26-18(12-28(17)19)27-21(29)25-16-4-5-16/h2-3,6-12,16H,4-5H2,1H3,(H2,25,27,29)

> <Ligand InChI Key>
WKJAKTPELBFZGV-UHFFFAOYSA-N

> <BindingDB MonomerID>
50378440

> <BindingDB Ligand Name>
CHEMBL571734

> <Target Name Assigned by Curator or DataSource>
DNA gyrase subunit B

> <Target Source Organism According to Curator or DataSource>
Streptococcus pneumoniae

> <Ki (nM)>


> <IC50 (nM)>
 295

> <Kd (nM)>


> <EC50 (nM)>


> <kon (M-1-s-1)>


> <koff (s-1)>


> <pH>


> <Temp C>


> <Curation/DataSource>
ChEMBL

> <Article DOI>
10.1016/j.bmcl.2009.07.141

> <PMID>
19683922

> <PubChem AID>


> <Patent Number>


> <Authors>
Starr, JT; Sciotti, RJ; Hanna, DL; Huband, MD; Mullins, LM; Cai, H; Gage, JW; Lockard, M; Rauckhorst, MR; Owen, RM; Lall, MS; Tomilo, M; Chen, H; McCurdy, SP; Barbachyn, MR

> <Institution>
Pfizer Inc.

> <Link to Ligand in BindingDB>
http://www.bindingdb.org/bind/chemsearch/marvin/MolStructure.jsp?monomerid=50378440

> <Link to Ligand-Target Pair in BindingDB>
http://www.bindingdb.org/jsp/dbsearch/PrimarySearch_ki.jsp?energyterm=kJ/mole&tag=pol&polymerid=50005944&target=DNA+gyrase+subunit+B&column=ki&startPg=0&Increment=50&submit=Search

> <Link to Ligand-Target Pair in BindingDB>
http://www.bindingdb.org/jsp/dbsearch/PrimarySearch_ki.jsp?energyterm=kJ/mole&tag=r21&monomerid=50378440&enzyme=DNA+gyrase+subunit+B&column=ki&startPg=0&Increment=50&submit=Search

> <Ligand HET ID in PDB>


> <PDB ID(s) for Ligand-Target Complex>


> <PubChem CID>
45484795

> <PubChem SID>
160857523

> <ChEBI ID of Ligand>


> <ChEMBL ID of Ligand>
CHEMBL571734

> <DrugBank ID of Ligand>


> <IUPHAR_GRAC ID of Ligand>


> <KEGG ID of Ligand>


> <ZINC ID of Ligand>
ZINC45286570

> <Number of Protein Chains in Target (>1 implies a multichain complex)>
1

> <BindingDB Target Chain Sequence>
MTEEIKNLQAQDYDASQIQVLEGLEAVRMRPGMYIGSTSKEGLHHLVWEIVDNSIDEALAGFASHIQVFIEPDDSITVVDDGRGIPVDIQEKTGRPAVETVFTVLHAGGKFGGGGYKVSGGLHGVGSSVVNALSTQLDVHVHKNGKIHYQEYRRGHVVADLEIVGDTDKTGTTVHFTPDPKIFTETTIFDFDKLNKRIQELAFLNRGLQISITDKRQGLEQTKHYHYEGGIASYVEYINENKDVIFDTPIYTDGEMDDITVEVAMQYTTGYHENVMSFANNIHTHEGGTHEQGFRTALTRVINDYARKNKLLKDNEDNLTGEDVREGLTAVISVKHPNPQFEGQTKTKLGNSEVVKITNRLFSEAFSDFLMENPQIAKRIVEKGILAAKARVAAKRAREVTRKKSGLEISNLPGKLADCSSNNPAETELFIVEGDSAGGSAKSGRNREFQAILPIRGKILNVEKASMDKILANEEIRSLFTAMGTGFGAEFDVSKARYQKLVLMTDADVDGAHIRTLLLTLIYRYMKPILEAGYVYIAQPPIYGVKVGSEIKEYIQPGADQEIKLQEALARYSEGRTKPTIQRYKGLGEMDDHQLWETTMDPEHRLMARVSVDDAAEADKIFDMLMGDRVEPRREFIEENAVYSTLDV

> <PDB ID(s) of Target Chain>
4Z2C,4Z2D,4Z2E

> <UniProt (SwissProt) Recommended Name of Target Chain>
DNA gyrase subunit B

> <UniProt (SwissProt) Entry Name of Target Chain>
GYRB_STRPN

> <UniProt (SwissProt) Primary ID of Target Chain>
P0A4L9

> <UniProt (SwissProt) Secondary ID(s) of Target Chain>
P48373

> <UniProt (SwissProt) Alternative ID(s) of Target Chain>


> <UniProt (TrEMBL) Submitted Name of Target Chain>


> <UniProt (TrEMBL) Entry Name of Target Chain>


> <UniProt (TrEMBL) Primary ID of Target Chain>


> <UniProt (TrEMBL) Secondary ID(s) of Target Chain>


> <UniProt (TrEMBL) Alternative ID(s) of Target Chain>


$$$$

  Mrv0541 11231413392D          

 43 47  0  0  0  0            999 V2000
    0.1685   -5.4260    0.0000 C   0  0  0  0  0  0  0  0  0  0  0  0
   -0.5573   -5.0244    0.0000 C   0  0  1  0  0  0  0  0  0  0  0  0
   -1.2640   -5.4499    0.0000 C   0  0  2  0  0  0  0  0  0  0  0  0
   -1.2512   -6.2787    0.0000 C   0  0  2  0  0  0  0  0  0  0  0  0
   -0.5253   -6.6802    0.0000 C   0  0  1  0  0  0  0  0  0  0  0  0
    0.1876   -6.2530    0.0000 O   0  0  0  0  0  0  0  0  0  0  0  0
   -0.5110   -7.5050    0.0000 O   0  0  0  0  0  0  0  0  0  0  0  0
    0.2087   -7.9163    0.0000 C   0  0  0  0  0  0  0  0  0  0  0  0
    0.2080   -8.7408    0.0000 C   0  0  0  0  0  0  0  0  0  0  0  0
    0.9235   -7.5021    0.0000 C   0  0  0  0  0  0  0  0  0  0  0  0
    1.6380   -7.9198    0.0000 C   0  0  0  0  0  0  0  0  0  0  0  0
    1.6361   -8.7444    0.0000 C   0  0  0  0  0  0  0  0  0  0  0  0
    0.9209   -9.1559    0.0000 C   0  0  0  0  0  0  0  0  0  0  0  0
    0.9197   -9.9766    0.0000 O   0  0  0  0  0  0  0  0  0  0  0  0
    1.6320  -10.3919    0.0000 C   0  0  0  0  0  0  0  0  0  0  0  0
    2.3473   -9.9804    0.0000 C   0  0  0  0  0  0  0  0  0  0  0  0
    2.3501   -9.1535    0.0000 C   0  0  0  0  0  0  0  0  0  0  0  0
    3.0646   -8.7411    0.0000 O   0  0  0  0  0  0  0  0  0  0  0  0
    1.6297  -11.2169    0.0000 O   0  0  0  0  0  0  0  0  0  0  0  0
    3.0607  -10.3947    0.0000 N   0  0  0  0  0  0  0  0  0  0  0  0
    3.0586  -11.2196    0.0000 C   0  0  0  0  0  0  0  0  0  0  0  0
    2.3431  -11.6302    0.0000 O   0  0  0  0  0  0  0  0  0  0  0  0
    3.7720  -11.6338    0.0000 C   0  0  0  0  0  0  0  0  0  0  0  0
    3.7670  -12.4579    0.0000 C   0  0  0  0  0  0  0  0  0  0  0  0
    4.4796  -12.8722    0.0000 C   0  0  0  0  0  0  0  0  0  0  0  0
    5.1960  -12.4614    0.0000 C   0  0  0  0  0  0  0  0  0  0  0  0
    5.1954  -11.6322    0.0000 C   0  0  0  0  0  0  0  0  0  0  0  0
    4.4823  -11.2217    0.0000 C   0  0  0  0  0  0  0  0  0  0  0  0
    0.9960   -5.4070    0.0000 C   0  0  0  0  0  0  0  0  0  0  0  0
    0.1577   -4.6029    0.0000 C   0  0  0  0  0  0  0  0  0  0  0  0
   -0.5724   -4.1996    0.0000 O   0  0  0  0  0  0  0  0  0  0  0  0
    0.1343   -3.7741    0.0000 C   0  0  0  0  0  0  0  0  0  0  0  0
   -1.9854   -5.0496    0.0000 O   0  0  0  0  0  0  0  0  0  0  0  0
   -1.9585   -6.7033    0.0000 O   0  0  0  0  0  0  0  0  0  0  0  0
   -0.5074   -9.1516    0.0000 Cl  0  0  0  0  0  0  0  0  0  0  0  0
   -2.6799   -6.3029    0.0000 C   0  0  0  0  0  0  0  0  0  0  0  0
   -3.3883   -6.7285    0.0000 C   0  0  0  0  0  0  0  0  0  0  0  0
   -2.6938   -5.4781    0.0000 O   0  0  0  0  0  0  0  0  0  0  0  0
   -4.0329   -6.2205    0.0000 N   0  0  0  0  0  0  0  0  0  0  0  0
   -4.7185   -6.6794    0.0000 C   0  0  0  0  0  0  0  0  0  0  0  0
   -4.4940   -7.4733    0.0000 C   0  0  0  0  0  0  0  0  0  0  0  0
   -3.6696   -7.5049    0.0000 C   0  0  0  0  0  0  0  0  0  0  0  0
   -5.4355   -6.2650    0.0000 C   0  0  0  0  0  0  0  0  0  0  0  0
  8 10  2  0  0  0  0
 20 21  1  0  0  0  0
  9 13  2  0  0  0  0
 21 22  2  0  0  0  0
 11 10  1  0  0  0  0
 21 23  1  0  0  0  0
 11 12  2  0  0  0  0
 23 24  2  0  0  0  0
  3  4  1  0  0  0  0
 24 25  1  0  0  0  0
 12 13  1  0  0  0  0
 25 26  2  0  0  0  0
  4  5  1  0  0  0  0
 26 27  1  0  0  0  0
  5  6  1  0  0  0  0
 27 28  2  0  0  0  0
 28 23  1  0  0  0  0
  1 29  1  0  0  0  0
  5  7  1  1  0  0  0
  1 30  1  0  0  0  0
  2  1  1  0  0  0  0
  2 31  1  1  0  0  0
  7  8  1  0  0  0  0
 31 32  1  0  0  0  0
 12 17  1  0  0  0  0
  3 33  1  6  0  0  0
 13 14  1  0  0  0  0
  4 34  1  6  0  0  0
 14 15  1  0  0  0  0
  9 35  1  0  0  0  0
 15 16  1  0  0  0  0
 34 36  1  0  0  0  0
 16 17  2  0  0  0  0
 36 37  1  0  0  0  0
  8  9  1  0  0  0  0
 36 38  2  0  0  0  0
 37 39  1  0  0  0  0
 17 18  1  0  0  0  0
  1  6  1  0  0  0  0
 15 19  2  0  0  0  0
  3  2  1  0  0  0  0
 39 40  1  0  0  0  0
 40 41  2  0  0  0  0
 41 42  1  0  0  0  0
 42 37  2  0  0  0  0
 16 20  1  0  0  0  0
 40 43  1  0  0  0  0
M  END
> <From> 
www.bindingDB.org

> <BindingDB Reactant_set_id>
50607669

> <Ligand InChI>
InChI=1S/C30H29ClN2O10/c1-14-10-12-17(32-14)27(37)42-24-22(35)25(39-4)30(2,3)43-29(24)40-18-13-11-16-21(34)20(28(38)41-23(16)19(18)31)33-26(36)15-8-6-5-7-9-15/h5-13,22,24-25,29,32,34-35H,1-4H3,(H,33,36)/t22-,24+,25+,29+/m0/s1

> <Ligand InChI Key>
MOLANIOFWMYOSG-NNGOBPNTSA-N

> <BindingDB MonomerID>
50330299

> <BindingDB Ligand Name>
(2S,3R,4R,5R)-2-(3-benzamido-8-chloro-4-hydroxy-2-oxo-2H-chromen-7-yloxy)-4-hydroxy-5-methoxy-6,6-dimethyltetrahydro-2H-pyran-3-yl 5-methyl-1H-pyrrole-2-carboxylate::CHEMBL1275894

> <Target Name Assigned by Curator or DataSource>
DNA Gyrase Subunit B

> <Target Source Organism According to Curator or DataSource>
Escherichia coli

> <Ki (nM)>


> <IC50 (nM)>
 297

> <Kd (nM)>


> <EC50 (nM)>


> <kon (M-1-s-1)>


> <koff (s-1)>


> <pH>


> <Temp C>


> <Curation/DataSource>
ChEMBL

> <Article DOI>
10.1128/AAC.01235-07

> <PMID>
18347114

> <PubChem AID>


> <Patent Number>


> <Authors>
Anderle, C; Stieger, M; Burrell, M; Reinelt, S; Maxwell, A; Page, M; Heide, L

> <Institution>
Universit&#228;t T&#252;bingen

> <Link to Ligand in BindingDB>
http://www.bindingdb.org/bind/chemsearch/marvin/MolStructure.jsp?monomerid=50330299

> <Link to Ligand-Target Pair in BindingDB>
http://www.bindingdb.org/jsp/dbsearch/PrimarySearch_ki.jsp?energyterm=kJ/mole&tag=pol&polymerid=2630&target=DNA+Gyrase+Subunit+B&column=ki&startPg=0&Increment=50&submit=Search

> <Link to Ligand-Target Pair in BindingDB>
http://www.bindingdb.org/jsp/dbsearch/PrimarySearch_ki.jsp?energyterm=kJ/mole&tag=r21&monomerid=50330299&enzyme=DNA+Gyrase+Subunit+B&column=ki&startPg=0&Increment=50&submit=Search

> <Ligand HET ID in PDB>


> <PDB ID(s) for Ligand-Target Complex>


> <PubChem CID>
54729452

> <PubChem SID>
123109414

> <ChEBI ID of Ligand>


> <ChEMBL ID of Ligand>
CHEMBL1275894

> <DrugBank ID of Ligand>


> <IUPHAR_GRAC ID of Ligand>


> <KEGG ID of Ligand>


> <ZINC ID of Ligand>
ZINC64447924

> <Number of Protein Chains in Target (>1 implies a multichain complex)>
1

> <BindingDB Target Chain Sequence>
MSNSYDSSSIKVLKGLDAVRKRPGMYIGDTDDGTGLHHMVFEVVDNAIDEALAGHCKEII
VTIHADNSVSVQDDGRGIPTGIHPEEGVSAAEVIMTVLHAGGKFDDNSYKVSGGLHGVGV
SVVNALSQKLELVIQREGKIHRQIYEHGVPQAPLAVTGETEKTGTMVRFWPSLETFTNVT
EFEYEILAKRLRELSFLNSGVSIRLRDKRDGKEDHFHYEGGIKAFVEYLNKNKTPIHPNI
FYFSTEKDGIGVEVALQWNDGFQENIYCFTNNIPQRDGGTHLAGFRAAMTRTLNAYMDKE
GYSKKAKVSATGDDAREGLIAVVSVKVPDPKFSSQTKDKLVSSEVKSAVEQQMNELLAEY
LLENPTDAKIVVGKIIDAARAREAARRAREMTRRKGALDLAGLPGKLADCQERDPALSEL
YLVEGDSAGGSAKQGRNRKNQAILPLKGKILNVEKARFDKMLSSQEVATLITALGCGIGR
DEYNPDKLRYHSIIIMTDADVDGSHIRTLLLTFFYRQMPEIVERGHVYIAQPPLYKVKKG
KQEQYIKDDEAMDQYQISIALDGATLHTNASAPALAGEALEKLVSEYNATQKMINRMERR
YPKAMLKELIYQPTLTEADLSDEQTVTRWVNALVSELNDKEQHGSQWKFDVHTNAEQNLF
EPIVRVRTHGVDTDYPLDHEFITGGEYRRICTLGEKLRGLLEEDAFIERGERRQPVASFE
QALDWLVKESRRGLSIQRYKGLGEMNPEQLWETTMDPESRRMLRVTVKDAIAADQLFTTL
MGDAVEPRRAFIEENALKAANIDI

> <PDB ID(s) of Target Chain>
1KZN,3G7E,3NUH,4DUH,4HYP,4KFG,4PRV,4PRX,4PU9,4WUB,4WUC,4WUD,4XTJ,4ZVI,5L3J,5MMN,5MMO,5MMP,5Z4H,5Z4O,5Z9B,5Z9E,5Z9F,5Z9L,5Z9M,5Z9N,5Z9Q,6ENG,6F86,6F8J,6F94,6F96

> <UniProt (SwissProt) Recommended Name of Target Chain>
DNA gyrase subunit B

> <UniProt (SwissProt) Entry Name of Target Chain>
GYRB_ECOLI

> <UniProt (SwissProt) Primary ID of Target Chain>
P0AES6

> <UniProt (SwissProt) Secondary ID(s) of Target Chain>
O08438,P06982,Q2M811

> <UniProt (SwissProt) Alternative ID(s) of Target Chain>


> <UniProt (TrEMBL) Submitted Name of Target Chain>


> <UniProt (TrEMBL) Entry Name of Target Chain>


> <UniProt (TrEMBL) Primary ID of Target Chain>


> <UniProt (TrEMBL) Secondary ID(s) of Target Chain>


> <UniProt (TrEMBL) Alternative ID(s) of Target Chain>


$$$$

  Mrv0541 04241520572D          

 34 37  0  0  0  0            999 V2000
    5.7877   -9.5344    0.0000 C   0  0  0  0  0  0  0  0  0  0  0  0
    5.7865  -10.3617    0.0000 C   0  0  0  0  0  0  0  0  0  0  0  0
    6.5013  -10.7746    0.0000 C   0  0  0  0  0  0  0  0  0  0  0  0
    7.2177  -10.3612    0.0000 C   0  0  0  0  0  0  0  0  0  0  0  0
    7.2149   -9.5307    0.0000 C   0  0  0  0  0  0  0  0  0  0  0  0
    6.4995   -9.1216    0.0000 N   0  0  0  0  0  0  0  0  0  0  0  0
    5.0732   -9.1220    0.0000 N   0  0  0  0  0  0  0  0  0  0  0  0
    4.3588   -9.5347    0.0000 C   0  0  0  0  0  0  0  0  0  0  0  0
    3.6442   -9.1224    0.0000 N   0  0  0  0  0  0  0  0  0  0  0  0
    4.3589  -10.3596    0.0000 O   0  0  0  0  0  0  0  0  0  0  0  0
    2.9298   -9.5350    0.0000 C   0  0  0  0  0  0  0  0  0  0  0  0
    2.2153   -9.1227    0.0000 C   0  0  0  0  0  0  0  0  0  0  0  0
    7.9293  -10.7717    0.0000 C   0  0  0  0  0  0  0  0  0  0  0  0
    7.9292  -11.5978    0.0000 C   0  0  0  0  0  0  0  0  0  0  0  0
    8.6434  -12.0092    0.0000 N   0  0  0  0  0  0  0  0  0  0  0  0
    9.3583  -11.5955    0.0000 C   0  0  0  0  0  0  0  0  0  0  0  0
    9.3543  -10.7663    0.0000 C   0  0  0  0  0  0  0  0  0  0  0  0
    8.6395  -10.3587    0.0000 C   0  0  0  0  0  0  0  0  0  0  0  0
   10.0358  -10.3008    0.0000 C   0  0  0  0  0  0  0  0  0  0  0  0
    6.5062  -11.5994    0.0000 C   0  0  0  0  0  0  0  0  0  0  0  0
    5.8387  -12.0842    0.0000 S   0  0  0  0  0  0  0  0  0  0  0  0
    6.0934  -12.8689    0.0000 C   0  0  0  0  0  0  0  0  0  0  0  0
    6.9184  -12.8691    0.0000 C   0  0  0  0  0  0  0  0  0  0  0  0
    7.1734  -12.0845    0.0000 N   0  0  0  0  0  0  0  0  0  0  0  0
    7.4032  -13.5366    0.0000 C   0  0  0  0  0  0  0  0  0  0  0  0
    7.0676  -14.2902    0.0000 F   0  0  0  0  0  0  0  0  0  0  0  0
    8.2237  -13.4505    0.0000 F   0  0  0  0  0  0  0  0  0  0  0  0
    7.9848  -14.1175    0.0000 F   0  0  0  0  0  0  0  0  0  0  0  0
   10.8127  -10.5784    0.0000 C   0  0  0  0  0  0  0  0  0  0  0  0
   11.3167   -9.9253    0.0000 N   0  0  0  0  0  0  0  0  0  0  0  0
   10.8514   -9.2441    0.0000 O   0  0  0  0  0  0  0  0  0  0  0  0
   10.0597   -9.4761    0.0000 C   0  0  0  0  0  0  0  0  0  0  0  0
    9.4066   -8.9721    0.0000 C   0  0  0  0  0  0  0  0  0  0  0  0
   11.0447  -11.3701    0.0000 C   0  0  0  0  0  0  0  0  0  0  0  0
  1  2  4  0  0  0  0
  2  3  4  0  0  0  0
  3  4  4  0  0  0  0
  4  5  4  0  0  0  0
  5  6  4  0  0  0  0
  6  1  4  0  0  0  0
  1  7  1  0  0  0  0
  7  8  1  0  0  0  0
  8  9  1  0  0  0  0
  8 10  2  0  0  0  0
  9 11  1  0  0  0  0
 11 12  1  0  0  0  0
 13 14  4  0  0  0  0
 14 15  4  0  0  0  0
 15 16  4  0  0  0  0
 16 17  4  0  0  0  0
 17 18  4  0  0  0  0
 18 13  4  0  0  0  0
  4 13  1  0  0  0  0
 17 19  1  0  0  0  0
 20 21  4  0  0  0  0
 21 22  4  0  0  0  0
 22 23  4  0  0  0  0
 23 24  4  0  0  0  0
 24 20  4  0  0  0  0
  3 20  1  0  0  0  0
 23 25  1  0  0  0  0
 25 26  1  0  0  0  0
 25 27  1  0  0  0  0
 25 28  1  0  0  0  0
 19 29  4  0  0  0  0
 29 30  4  0  0  0  0
 30 31  4  0  0  0  0
 31 32  4  0  0  0  0
 32 19  4  0  0  0  0
 32 33  1  0  0  0  0
 29 34  1  0  0  0  0
M  END
> <From> 
www.bindingDB.org

> <BindingDB Reactant_set_id>
50083276

> <Ligand InChI>
InChI=1S/C22H19F3N6O2S/c1-4-27-21(32)30-18-6-15(20-29-17(10-34-20)22(23,24)25)16(9-28-18)13-5-14(8-26-7-13)19-11(2)31-33-12(19)3/h5-10H,4H2,1-3H3,(H2,27,28,30,32)

> <Ligand InChI Key>
NPJHPUGORDSOLO-UHFFFAOYSA-N

> <BindingDB MonomerID>
50006601

> <BindingDB Ligand Name>
CHEMBL3235092

> <Target Name Assigned by Curator or DataSource>
DNA Gyrase Subunit B

> <Target Source Organism According to Curator or DataSource>
Staphylococcus aureus

> <Ki (nM)>


> <IC50 (nM)>
 300

> <Kd (nM)>


> <EC50 (nM)>


> <kon (M-1-s-1)>


> <koff (s-1)>


> <pH>


> <Temp C>


> <Curation/DataSource>
ChEMBL

> <Article DOI>
10.1021/jm401208b

> <PMID>
24098982

> <PubChem AID>


> <Patent Number>


> <Authors>
Basarab, GS; Basarab, GS; Boriack-Sjodin, PA; Boriack-Sjodin, PA; Illingworth, R; Illingworth, R; Manchester, JI; Manchester, JI; Dangel, B; Dangel, B; Sriram, S; Sriram, S

> <Institution>
AstraZeneca R&amp;D Boston

> <Link to Ligand in BindingDB>
http://www.bindingdb.org/bind/chemsearch/marvin/MolStructure.jsp?monomerid=50006601

> <Link to Ligand-Target Pair in BindingDB>
http://www.bindingdb.org/jsp/dbsearch/PrimarySearch_ki.jsp?energyterm=kJ/mole&tag=pol&polymerid=2626&target=DNA+Gyrase+Subunit+B&column=ki&startPg=0&Increment=50&submit=Search

> <Link to Ligand-Target Pair in BindingDB>
http://www.bindingdb.org/jsp/dbsearch/PrimarySearch_ki.jsp?energyterm=kJ/mole&tag=r21&monomerid=50006601&enzyme=DNA+Gyrase+Subunit+B&column=ki&startPg=0&Increment=50&submit=Search

> <Ligand HET ID in PDB>


> <PDB ID(s) for Ligand-Target Complex>


> <PubChem CID>
68639684

> <PubChem SID>
242057013

> <ChEBI ID of Ligand>


> <ChEMBL ID of Ligand>
CHEMBL3235092

> <DrugBank ID of Ligand>


> <IUPHAR_GRAC ID of Ligand>


> <KEGG ID of Ligand>


> <ZINC ID of Ligand>


> <Number of Protein Chains in Target (>1 implies a multichain complex)>
1

> <BindingDB Target Chain Sequence>
MVTALSDVNNTDNYGAGQIQVLEGLEAVRKRPGMYIGSTSERGLHHLVWEIVDNSIDEALAGYANQIEVVIEKDNWIKVTDNGRGIPVDIQEKMGRPAVEVILTVLHAGGKFGGGGYKVSGGLHGVGSSVVNALSQDLEVYVHRNETIYHQAYKKGVPQFDLKEVGTTDKTGTVIRFKADGEIFTETTVYNYETLQQRIRELAFLNKGIQITLRDERDEENVREDSYHYEGGIKSYVELLNENKEPIHDEPIYIHQSKDDIEVEIAIQYNSGYATNLLTYANNIHTYEGGTHEDGFKRALTRVLNSYGLSSKIMKEEKDRLSGEDTREGMTAIISIKHGDPQFEGQTKTKLGNSEVRQVVDKLFSEHFERFLYENPQVARTVVEKGIMAARARVAAKKAREVTRRKSALDVASLPGKLADCSSKSPEECEIFLVEGDSAGGSTKSGRDSRTQAILPLRGKILNVEKARLDRILNNNEIRQMITAFGTGIGGDFDLAKARYHKIVIMTDADVDGAHIRTLLLTFFYRFMRPLIEAGYVYIAQPPLYKLTQGKQKYYVYNDRELDKLKSELNPTPKWSIARYKGLGEMNADQLWETTMNPEHRALLQVKLEDAIEADQTFEMLMGDVVENRRQFIEDNAVYANLDF

> <PDB ID(s) of Target Chain>


> <UniProt (SwissProt) Recommended Name of Target Chain>
DNA gyrase subunit B

> <UniProt (SwissProt) Entry Name of Target Chain>
GYRB_STAAU

> <UniProt (SwissProt) Primary ID of Target Chain>
P0A0K8

> <UniProt (SwissProt) Secondary ID(s) of Target Chain>
P20832

> <UniProt (SwissProt) Alternative ID(s) of Target Chain>


> <UniProt (TrEMBL) Submitted Name of Target Chain>


> <UniProt (TrEMBL) Entry Name of Target Chain>


> <UniProt (TrEMBL) Primary ID of Target Chain>


> <UniProt (TrEMBL) Secondary ID(s) of Target Chain>


> <UniProt (TrEMBL) Alternative ID(s) of Target Chain>


$$$$

  SciTegic09261414462D

 22 23  0  0  0  0            999 V2000
   16.0494  -23.1248    0.0000 C   0  0
   16.0482  -23.9444    0.0000 C   0  0
   16.7563  -24.3533    0.0000 C   0  0
   17.4659  -23.9439    0.0000 C   0  0
   17.4631  -23.1212    0.0000 C   0  0
   16.7545  -22.7160    0.0000 N   0  0
   15.3416  -22.7164    0.0000 N   0  0
   14.6340  -23.1252    0.0000 C   0  0
   13.9262  -22.7167    0.0000 N   0  0
   14.6342  -23.9424    0.0000 O   0  0
   13.2185  -23.1255    0.0000 C   0  0
   12.5107  -22.7171    0.0000 C   0  0
   18.1708  -24.3506    0.0000 C   0  0
   18.1707  -25.1689    0.0000 C   0  0
   18.8782  -25.5763    0.0000 N   0  0
   19.5863  -25.1666    0.0000 C   0  0
   19.5824  -24.3451    0.0000 C   0  0
   18.8743  -23.9414    0.0000 C   0  0
   20.2880  -23.9329    0.0000 C   0  0
   20.9978  -24.3379    0.0000 O   0  0
   20.2838  -23.1158    0.0000 O   0  0
   16.7561  -25.1705    0.0000 Br  0  0
  1  2  2  0
  2  3  1  0
  3  4  2  0
  4  5  1  0
  5  6  2  0
  6  1  1  0
  1  7  1  0
  7  8  1  0
  8  9  1  0
  8 10  2  0
  9 11  1  0
 11 12  1  0
 13 14  2  0
 14 15  1  0
 15 16  2  0
 16 17  1  0
 17 18  2  0
 18 13  1  0
  4 13  1  0
 17 19  1  0
 19 20  1  0
 19 21  2  0
  3 22  1  0
M  END
> <From> 
www.bindingDB.org

> <BindingDB Reactant_set_id>
50083264

> <Ligand InChI>
InChI=1S/C14H13BrN4O3/c1-2-17-14(22)19-12-4-11(15)10(7-18-12)8-3-9(13(20)21)6-16-5-8/h3-7H,2H2,1H3,(H,20,21)(H2,17,18,19,22)

> <Ligand InChI Key>
RZRBUMJCRYAUJG-UHFFFAOYSA-N

> <BindingDB MonomerID>
50006560

> <BindingDB Ligand Name>
CHEMBL3235080

> <Target Name Assigned by Curator or DataSource>
DNA Gyrase Subunit B

> <Target Source Organism According to Curator or DataSource>
Staphylococcus aureus

> <Ki (nM)>


> <IC50 (nM)>
 300

> <Kd (nM)>


> <EC50 (nM)>


> <kon (M-1-s-1)>


> <koff (s-1)>


> <pH>


> <Temp C>


> <Curation/DataSource>
ChEMBL

> <Article DOI>
10.1021/jm401208b

> <PMID>
24098982

> <PubChem AID>


> <Patent Number>


> <Authors>
Basarab, GS; Basarab, GS; Boriack-Sjodin, PA; Boriack-Sjodin, PA; Illingworth, R; Illingworth, R; Manchester, JI; Manchester, JI; Dangel, B; Dangel, B; Sriram, S; Sriram, S

> <Institution>
AstraZeneca R&amp;D Boston

> <Link to Ligand in BindingDB>
http://www.bindingdb.org/bind/chemsearch/marvin/MolStructure.jsp?monomerid=50006560

> <Link to Ligand-Target Pair in BindingDB>
http://www.bindingdb.org/jsp/dbsearch/PrimarySearch_ki.jsp?energyterm=kJ/mole&tag=pol&polymerid=2626&target=DNA+Gyrase+Subunit+B&column=ki&startPg=0&Increment=50&submit=Search

> <Link to Ligand-Target Pair in BindingDB>
http://www.bindingdb.org/jsp/dbsearch/PrimarySearch_ki.jsp?energyterm=kJ/mole&tag=r21&monomerid=50006560&enzyme=DNA+Gyrase+Subunit+B&column=ki&startPg=0&Increment=50&submit=Search

> <Ligand HET ID in PDB>


> <PDB ID(s) for Ligand-Target Complex>


> <PubChem CID>
72712257

> <PubChem SID>
103919961

> <ChEBI ID of Ligand>


> <ChEMBL ID of Ligand>
CHEMBL3235080

> <DrugBank ID of Ligand>


> <IUPHAR_GRAC ID of Ligand>


> <KEGG ID of Ligand>


> <ZINC ID of Ligand>
ZINC26379472

> <Number of Protein Chains in Target (>1 implies a multichain complex)>
1

> <BindingDB Target Chain Sequence>
MVTALSDVNNTDNYGAGQIQVLEGLEAVRKRPGMYIGSTSERGLHHLVWEIVDNSIDEALAGYANQIEVVIEKDNWIKVTDNGRGIPVDIQEKMGRPAVEVILTVLHAGGKFGGGGYKVSGGLHGVGSSVVNALSQDLEVYVHRNETIYHQAYKKGVPQFDLKEVGTTDKTGTVIRFKADGEIFTETTVYNYETLQQRIRELAFLNKGIQITLRDERDEENVREDSYHYEGGIKSYVELLNENKEPIHDEPIYIHQSKDDIEVEIAIQYNSGYATNLLTYANNIHTYEGGTHEDGFKRALTRVLNSYGLSSKIMKEEKDRLSGEDTREGMTAIISIKHGDPQFEGQTKTKLGNSEVRQVVDKLFSEHFERFLYENPQVARTVVEKGIMAARARVAAKKAREVTRRKSALDVASLPGKLADCSSKSPEECEIFLVEGDSAGGSTKSGRDSRTQAILPLRGKILNVEKARLDRILNNNEIRQMITAFGTGIGGDFDLAKARYHKIVIMTDADVDGAHIRTLLLTFFYRFMRPLIEAGYVYIAQPPLYKLTQGKQKYYVYNDRELDKLKSELNPTPKWSIARYKGLGEMNADQLWETTMNPEHRALLQVKLEDAIEADQTFEMLMGDVVENRRQFIEDNAVYANLDF

> <PDB ID(s) of Target Chain>


> <UniProt (SwissProt) Recommended Name of Target Chain>
DNA gyrase subunit B

> <UniProt (SwissProt) Entry Name of Target Chain>
GYRB_STAAU

> <UniProt (SwissProt) Primary ID of Target Chain>
P0A0K8

> <UniProt (SwissProt) Secondary ID(s) of Target Chain>
P20832

> <UniProt (SwissProt) Alternative ID(s) of Target Chain>


> <UniProt (TrEMBL) Submitted Name of Target Chain>


> <UniProt (TrEMBL) Entry Name of Target Chain>


> <UniProt (TrEMBL) Primary ID of Target Chain>


> <UniProt (TrEMBL) Secondary ID(s) of Target Chain>


> <UniProt (TrEMBL) Alternative ID(s) of Target Chain>


$$$$

  SciTegic09261414462D

 27 29  0  0  0  0            999 V2000
    4.7531  -27.2644    0.0000 C   0  0
    4.7520  -28.0840    0.0000 C   0  0
    5.4600  -28.4929    0.0000 C   0  0
    6.1697  -28.0835    0.0000 C   0  0
    6.1669  -27.2608    0.0000 C   0  0
    5.4583  -26.8556    0.0000 N   0  0
    4.0453  -26.8560    0.0000 N   0  0
    3.3377  -27.2648    0.0000 C   0  0
    2.6299  -26.8563    0.0000 N   0  0
    3.3379  -28.0820    0.0000 O   0  0
    1.9223  -27.2651    0.0000 C   0  0
    1.2145  -26.8567    0.0000 C   0  0
    6.8745  -28.4902    0.0000 C   0  0
    6.8745  -29.3085    0.0000 C   0  0
    7.5820  -29.7159    0.0000 N   0  0
    8.2901  -29.3062    0.0000 C   0  0
    8.2861  -28.4848    0.0000 C   0  0
    7.5781  -28.0810    0.0000 C   0  0
    8.9918  -28.0726    0.0000 C   0  0
    9.7015  -28.4775    0.0000 O   0  0
    8.9876  -27.2554    0.0000 O   0  0
    5.4617  -29.3080    0.0000 C   0  0
    4.7523  -29.7158    0.0000 C   0  0
    4.7517  -30.5322    0.0000 C   0  0
    5.4599  -30.9418    0.0000 N   0  0
    6.1700  -30.5290    0.0000 C   0  0
    6.1671  -29.7139    0.0000 C   0  0
  1  2  2  0
  2  3  1  0
  3  4  2  0
  4  5  1  0
  5  6  2  0
  6  1  1  0
  1  7  1  0
  7  8  1  0
  8  9  1  0
  8 10  2  0
  9 11  1  0
 11 12  1  0
 13 14  2  0
 14 15  1  0
 15 16  2  0
 16 17  1  0
 17 18  2  0
 18 13  1  0
  4 13  1  0
 17 19  1  0
 19 20  1  0
 19 21  2  0
 22 23  2  0
 23 24  1  0
 24 25  2  0
 25 26  1  0
 26 27  2  0
 27 22  1  0
  3 22  1  0
M  END
> <From> 
www.bindingDB.org

> <BindingDB Reactant_set_id>
50083265

> <Ligand InChI>
InChI=1S/C19H17N5O3/c1-2-22-19(27)24-17-8-15(12-3-5-20-6-4-12)16(11-23-17)13-7-14(18(25)26)10-21-9-13/h3-11H,2H2,1H3,(H,25,26)(H2,22,23,24,27)

> <Ligand InChI Key>
QXQNDCVMXTYDQF-UHFFFAOYSA-N

> <BindingDB MonomerID>
50006561

> <BindingDB Ligand Name>
CHEMBL3235081

> <Target Name Assigned by Curator or DataSource>
DNA Gyrase Subunit B

> <Target Source Organism According to Curator or DataSource>
Staphylococcus aureus

> <Ki (nM)>


> <IC50 (nM)>
 320

> <Kd (nM)>


> <EC50 (nM)>


> <kon (M-1-s-1)>


> <koff (s-1)>


> <pH>


> <Temp C>


> <Curation/DataSource>
ChEMBL

> <Article DOI>
10.1021/jm401208b

> <PMID>
24098982

> <PubChem AID>


> <Patent Number>


> <Authors>
Basarab, GS; Basarab, GS; Boriack-Sjodin, PA; Boriack-Sjodin, PA; Illingworth, R; Illingworth, R; Manchester, JI; Manchester, JI; Dangel, B; Dangel, B; Sriram, S; Sriram, S

> <Institution>
AstraZeneca R&amp;D Boston

> <Link to Ligand in BindingDB>
http://www.bindingdb.org/bind/chemsearch/marvin/MolStructure.jsp?monomerid=50006561

> <Link to Ligand-Target Pair in BindingDB>
http://www.bindingdb.org/jsp/dbsearch/PrimarySearch_ki.jsp?energyterm=kJ/mole&tag=pol&polymerid=2626&target=DNA+Gyrase+Subunit+B&column=ki&startPg=0&Increment=50&submit=Search

> <Link to Ligand-Target Pair in BindingDB>
http://www.bindingdb.org/jsp/dbsearch/PrimarySearch_ki.jsp?energyterm=kJ/mole&tag=r21&monomerid=50006561&enzyme=DNA+Gyrase+Subunit+B&column=ki&startPg=0&Increment=50&submit=Search

> <Ligand HET ID in PDB>


> <PDB ID(s) for Ligand-Target Complex>


> <PubChem CID>
72712259

> <PubChem SID>
103919962

> <ChEBI ID of Ligand>


> <ChEMBL ID of Ligand>
CHEMBL3235081

> <DrugBank ID of Ligand>


> <IUPHAR_GRAC ID of Ligand>


> <KEGG ID of Ligand>


> <ZINC ID of Ligand>
ZINC26376020

> <Number of Protein Chains in Target (>1 implies a multichain complex)>
1

> <BindingDB Target Chain Sequence>
MVTALSDVNNTDNYGAGQIQVLEGLEAVRKRPGMYIGSTSERGLHHLVWEIVDNSIDEALAGYANQIEVVIEKDNWIKVTDNGRGIPVDIQEKMGRPAVEVILTVLHAGGKFGGGGYKVSGGLHGVGSSVVNALSQDLEVYVHRNETIYHQAYKKGVPQFDLKEVGTTDKTGTVIRFKADGEIFTETTVYNYETLQQRIRELAFLNKGIQITLRDERDEENVREDSYHYEGGIKSYVELLNENKEPIHDEPIYIHQSKDDIEVEIAIQYNSGYATNLLTYANNIHTYEGGTHEDGFKRALTRVLNSYGLSSKIMKEEKDRLSGEDTREGMTAIISIKHGDPQFEGQTKTKLGNSEVRQVVDKLFSEHFERFLYENPQVARTVVEKGIMAARARVAAKKAREVTRRKSALDVASLPGKLADCSSKSPEECEIFLVEGDSAGGSTKSGRDSRTQAILPLRGKILNVEKARLDRILNNNEIRQMITAFGTGIGGDFDLAKARYHKIVIMTDADVDGAHIRTLLLTFFYRFMRPLIEAGYVYIAQPPLYKLTQGKQKYYVYNDRELDKLKSELNPTPKWSIARYKGLGEMNADQLWETTMNPEHRALLQVKLEDAIEADQTFEMLMGDVVENRRQFIEDNAVYANLDF

> <PDB ID(s) of Target Chain>


> <UniProt (SwissProt) Recommended Name of Target Chain>
DNA gyrase subunit B

> <UniProt (SwissProt) Entry Name of Target Chain>
GYRB_STAAU

> <UniProt (SwissProt) Primary ID of Target Chain>
P0A0K8

> <UniProt (SwissProt) Secondary ID(s) of Target Chain>
P20832

> <UniProt (SwissProt) Alternative ID(s) of Target Chain>


> <UniProt (TrEMBL) Submitted Name of Target Chain>


> <UniProt (TrEMBL) Entry Name of Target Chain>


> <UniProt (TrEMBL) Primary ID of Target Chain>


> <UniProt (TrEMBL) Secondary ID(s) of Target Chain>


> <UniProt (TrEMBL) Alternative ID(s) of Target Chain>


$$$$

  Mrv0541 11231413392D          

 46 50  0  0  0  0            999 V2000
    9.3224  -13.1884    0.0000 C   0  0  0  0  0  0  0  0  0  0  0  0
    8.6123  -13.6080    0.0000 C   0  0  0  0  0  0  0  0  0  0  0  0
    9.3136  -12.3634    0.0000 O   0  0  0  0  0  0  0  0  0  0  0  0
    7.8199  -13.3685    0.0000 C   0  0  0  0  0  0  0  0  0  0  0  0
    7.3470  -14.0445    0.0000 C   0  0  0  0  0  0  0  0  0  0  0  0
    7.8438  -14.7032    0.0000 C   0  0  0  0  0  0  0  0  0  0  0  0
    8.6236  -14.4341    0.0000 N   0  0  0  0  0  0  0  0  0  0  0  0
    7.7864  -15.5251    0.0000 C   0  0  0  0  0  0  0  0  0  0  0  0
   10.0411  -13.5934    0.0000 O   0  0  0  0  0  0  0  0  0  0  0  0
   12.1720  -12.3148    0.0000 C   0  0  0  0  0  0  0  0  0  0  0  0
   11.4462  -11.9132    0.0000 C   0  0  1  0  0  0  0  0  0  0  0  0
   10.7394  -12.3388    0.0000 C   0  0  2  0  0  0  0  0  0  0  0  0
   10.7523  -13.1676    0.0000 C   0  0  2  0  0  0  0  0  0  0  0  0
   11.4782  -13.5691    0.0000 C   0  0  1  0  0  0  0  0  0  0  0  0
   12.1912  -13.1419    0.0000 O   0  0  0  0  0  0  0  0  0  0  0  0
   11.4925  -14.3940    0.0000 O   0  0  0  0  0  0  0  0  0  0  0  0
   12.2122  -14.8053    0.0000 C   0  0  0  0  0  0  0  0  0  0  0  0
   12.2115  -15.6298    0.0000 C   0  0  0  0  0  0  0  0  0  0  0  0
   12.9271  -14.3910    0.0000 C   0  0  0  0  0  0  0  0  0  0  0  0
   13.6416  -14.8088    0.0000 C   0  0  0  0  0  0  0  0  0  0  0  0
   13.6397  -15.6334    0.0000 C   0  0  0  0  0  0  0  0  0  0  0  0
   12.9244  -16.0449    0.0000 C   0  0  0  0  0  0  0  0  0  0  0  0
   12.9232  -16.8656    0.0000 O   0  0  0  0  0  0  0  0  0  0  0  0
   13.6355  -17.2810    0.0000 C   0  0  0  0  0  0  0  0  0  0  0  0
   14.3509  -16.8695    0.0000 C   0  0  0  0  0  0  0  0  0  0  0  0
   14.3537  -16.0425    0.0000 C   0  0  0  0  0  0  0  0  0  0  0  0
   11.4961  -16.0407    0.0000 Cl  0  0  0  0  0  0  0  0  0  0  0  0
   15.0683  -15.6301    0.0000 O   0  0  0  0  0  0  0  0  0  0  0  0
   13.6332  -18.1060    0.0000 O   0  0  0  0  0  0  0  0  0  0  0  0
   15.0643  -17.2837    0.0000 N   0  0  0  0  0  0  0  0  0  0  0  0
   15.0622  -18.1087    0.0000 C   0  0  0  0  0  0  0  0  0  0  0  0
   14.3467  -18.5193    0.0000 O   0  0  0  0  0  0  0  0  0  0  0  0
   15.7757  -18.5230    0.0000 C   0  0  0  0  0  0  0  0  0  0  0  0
   15.7707  -19.3471    0.0000 C   0  0  0  0  0  0  0  0  0  0  0  0
   16.4833  -19.7613    0.0000 C   0  0  0  0  0  0  0  0  0  0  0  0
   17.1997  -19.3506    0.0000 C   0  0  0  0  0  0  0  0  0  0  0  0
   17.1991  -18.5213    0.0000 C   0  0  0  0  0  0  0  0  0  0  0  0
   16.4860  -18.1108    0.0000 C   0  0  0  0  0  0  0  0  0  0  0  0
   17.9137  -19.7639    0.0000 O   0  0  0  0  0  0  0  0  0  0  0  0
   17.9133  -18.1081    0.0000 C   0  0  0  0  0  0  0  0  0  0  0  0
   12.9995  -12.2959    0.0000 C   0  0  0  0  0  0  0  0  0  0  0  0
   12.1612  -11.4917    0.0000 C   0  0  0  0  0  0  0  0  0  0  0  0
   11.4311  -11.0884    0.0000 O   0  0  0  0  0  0  0  0  0  0  0  0
   12.1378  -10.6629    0.0000 C   0  0  0  0  0  0  0  0  0  0  0  0
   10.0181  -11.9384    0.0000 O   0  0  0  0  0  0  0  0  0  0  0  0
   16.4808  -20.5863    0.0000 C   0  0  0  0  0  0  0  0  0  0  0  0
  4  5  1  0  0  0  0
  5  6  2  0  0  0  0
  6  7  1  0  0  0  0
  7  2  1  0  0  0  0
 21 26  1  0  0  0  0
 22 23  1  0  0  0  0
 23 24  1  0  0  0  0
 24 25  1  0  0  0  0
 25 26  2  0  0  0  0
 10 15  1  0  0  0  0
 18 27  1  0  0  0  0
 12 11  1  0  0  0  0
 26 28  1  0  0  0  0
 12 13  1  0  0  0  0
 24 29  2  0  0  0  0
 13 14  1  0  0  0  0
 25 30  1  0  0  0  0
 14 15  1  0  0  0  0
 30 31  1  0  0  0  0
  1  2  1  0  0  0  0
 31 32  2  0  0  0  0
 14 16  1  1  0  0  0
 31 33  1  0  0  0  0
  6  8  1  0  0  0  0
 33 34  2  0  0  0  0
 16 17  1  0  0  0  0
 34 35  1  0  0  0  0
 17 18  1  0  0  0  0
 35 36  2  0  0  0  0
 36 37  1  0  0  0  0
  1  9  1  0  0  0  0
 37 38  2  0  0  0  0
 38 33  1  0  0  0  0
 17 19  2  0  0  0  0
 36 39  1  0  0  0  0
 18 22  2  0  0  0  0
 37 40  1  0  0  0  0
 20 19  1  0  0  0  0
 10 41  1  0  0  0  0
 20 21  2  0  0  0  0
 10 42  1  0  0  0  0
 11 10  1  0  0  0  0
 11 43  1  1  0  0  0
 21 22  1  0  0  0  0
 43 44  1  0  0  0  0
  1  3  2  0  0  0  0
 12 45  1  6  0  0  0
 13  9  1  6  0  0  0
  2  4  2  0  0  0  0
 35 46  1  0  0  0  0
M  END
> <From> 
www.bindingDB.org

> <BindingDB Reactant_set_id>
50607692

> <Ligand InChI>
InChI=1S/C32H33ClN2O11/c1-13-11-16(12-14(2)22(13)36)28(39)35-21-23(37)17-8-10-19(20(33)25(17)44-30(21)41)43-31-26(24(38)27(42-6)32(4,5)46-31)45-29(40)18-9-7-15(3)34-18/h7-12,24,26-27,31,34,36-38H,1-6H3,(H,35,39)/t24-,26+,27+,31+/m0/s1

> <Ligand InChI Key>
WZYKNCBLHHYOFY-FWTOBACQSA-N

> <BindingDB MonomerID>
50330298

> <BindingDB Ligand Name>
(2S,3R,4R,5R)-2-(8-chloro-4-hydroxy-3-(4-hydroxy-3,5-dimethylbenzamido)-2-oxo-2H-chromen-7-yloxy)-4-hydroxy-5-methoxy-6,6-dimethyltetrahydro-2H-pyran-3-yl 5-methyl-1H-pyrrole-2-carboxylate::CHEMBL1275895

> <Target Name Assigned by Curator or DataSource>
DNA Gyrase Subunit B

> <Target Source Organism According to Curator or DataSource>
Escherichia coli

> <Ki (nM)>


> <IC50 (nM)>
 320

> <Kd (nM)>


> <EC50 (nM)>


> <kon (M-1-s-1)>


> <koff (s-1)>


> <pH>


> <Temp C>


> <Curation/DataSource>
ChEMBL

> <Article DOI>
10.1128/AAC.01235-07

> <PMID>
18347114

> <PubChem AID>


> <Patent Number>


> <Authors>
Anderle, C; Stieger, M; Burrell, M; Reinelt, S; Maxwell, A; Page, M; Heide, L

> <Institution>
Universit&#228;t T&#252;bingen

> <Link to Ligand in BindingDB>
http://www.bindingdb.org/bind/chemsearch/marvin/MolStructure.jsp?monomerid=50330298

> <Link to Ligand-Target Pair in BindingDB>
http://www.bindingdb.org/jsp/dbsearch/PrimarySearch_ki.jsp?energyterm=kJ/mole&tag=pol&polymerid=2630&target=DNA+Gyrase+Subunit+B&column=ki&startPg=0&Increment=50&submit=Search

> <Link to Ligand-Target Pair in BindingDB>
http://www.bindingdb.org/jsp/dbsearch/PrimarySearch_ki.jsp?energyterm=kJ/mole&tag=r21&monomerid=50330298&enzyme=DNA+Gyrase+Subunit+B&column=ki&startPg=0&Increment=50&submit=Search

> <Ligand HET ID in PDB>


> <PDB ID(s) for Ligand-Target Complex>


> <PubChem CID>
54730381

> <PubChem SID>
123109413

> <ChEBI ID of Ligand>


> <ChEMBL ID of Ligand>
CHEMBL1275895

> <DrugBank ID of Ligand>


> <IUPHAR_GRAC ID of Ligand>


> <KEGG ID of Ligand>


> <ZINC ID of Ligand>
ZINC72136394

> <Number of Protein Chains in Target (>1 implies a multichain complex)>
1

> <BindingDB Target Chain Sequence>
MSNSYDSSSIKVLKGLDAVRKRPGMYIGDTDDGTGLHHMVFEVVDNAIDEALAGHCKEII
VTIHADNSVSVQDDGRGIPTGIHPEEGVSAAEVIMTVLHAGGKFDDNSYKVSGGLHGVGV
SVVNALSQKLELVIQREGKIHRQIYEHGVPQAPLAVTGETEKTGTMVRFWPSLETFTNVT
EFEYEILAKRLRELSFLNSGVSIRLRDKRDGKEDHFHYEGGIKAFVEYLNKNKTPIHPNI
FYFSTEKDGIGVEVALQWNDGFQENIYCFTNNIPQRDGGTHLAGFRAAMTRTLNAYMDKE
GYSKKAKVSATGDDAREGLIAVVSVKVPDPKFSSQTKDKLVSSEVKSAVEQQMNELLAEY
LLENPTDAKIVVGKIIDAARAREAARRAREMTRRKGALDLAGLPGKLADCQERDPALSEL
YLVEGDSAGGSAKQGRNRKNQAILPLKGKILNVEKARFDKMLSSQEVATLITALGCGIGR
DEYNPDKLRYHSIIIMTDADVDGSHIRTLLLTFFYRQMPEIVERGHVYIAQPPLYKVKKG
KQEQYIKDDEAMDQYQISIALDGATLHTNASAPALAGEALEKLVSEYNATQKMINRMERR
YPKAMLKELIYQPTLTEADLSDEQTVTRWVNALVSELNDKEQHGSQWKFDVHTNAEQNLF
EPIVRVRTHGVDTDYPLDHEFITGGEYRRICTLGEKLRGLLEEDAFIERGERRQPVASFE
QALDWLVKESRRGLSIQRYKGLGEMNPEQLWETTMDPESRRMLRVTVKDAIAADQLFTTL
MGDAVEPRRAFIEENALKAANIDI

> <PDB ID(s) of Target Chain>
1KZN,3G7E,3NUH,4DUH,4HYP,4KFG,4PRV,4PRX,4PU9,4WUB,4WUC,4WUD,4XTJ,4ZVI,5L3J,5MMN,5MMO,5MMP,5Z4H,5Z4O,5Z9B,5Z9E,5Z9F,5Z9L,5Z9M,5Z9N,5Z9Q,6ENG,6F86,6F8J,6F94,6F96

> <UniProt (SwissProt) Recommended Name of Target Chain>
DNA gyrase subunit B

> <UniProt (SwissProt) Entry Name of Target Chain>
GYRB_ECOLI

> <UniProt (SwissProt) Primary ID of Target Chain>
P0AES6

> <UniProt (SwissProt) Secondary ID(s) of Target Chain>
O08438,P06982,Q2M811

> <UniProt (SwissProt) Alternative ID(s) of Target Chain>


> <UniProt (TrEMBL) Submitted Name of Target Chain>


> <UniProt (TrEMBL) Entry Name of Target Chain>


> <UniProt (TrEMBL) Primary ID of Target Chain>


> <UniProt (TrEMBL) Secondary ID(s) of Target Chain>


> <UniProt (TrEMBL) Alternative ID(s) of Target Chain>


$$$$

  Mrv0541 11241408262D          

 30 34  0  0  0  0            999 V2000
   -1.1347   -5.9745    0.0000 C   0  0  0  0  0  0  0  0  0  0  0  0
   -1.1358   -6.8017    0.0000 C   0  0  0  0  0  0  0  0  0  0  0  0
   -0.4211   -7.2145    0.0000 C   0  0  0  0  0  0  0  0  0  0  0  0
   -0.4229   -5.5617    0.0000 C   0  0  0  0  0  0  0  0  0  0  0  0
    1.0837   -5.7168    0.0000 N   0  0  0  0  0  0  0  0  0  0  0  0
    0.2925   -5.9708    0.0000 C   0  0  0  0  0  0  0  0  0  0  0  0
    0.2907   -6.8025    0.0000 N   0  0  0  0  0  0  0  0  0  0  0  0
    1.0817   -7.0599    0.0000 C   0  0  0  0  0  0  0  0  0  0  0  0
    1.5697   -6.3863    0.0000 C   0  0  0  0  0  0  0  0  0  0  0  0
   -1.8470   -5.5623    0.0000 C   0  0  0  0  0  0  0  0  0  0  0  0
   -1.8459   -4.7363    0.0000 C   0  0  0  0  0  0  0  0  0  0  0  0
   -2.5596   -4.3240    0.0000 N   0  0  0  0  0  0  0  0  0  0  0  0
   -3.2749   -4.7368    0.0000 C   0  0  0  0  0  0  0  0  0  0  0  0
   -3.2720   -5.5659    0.0000 C   0  0  0  0  0  0  0  0  0  0  0  0
   -2.5578   -5.9744    0.0000 C   0  0  0  0  0  0  0  0  0  0  0  0
   -0.4191   -8.0367    0.0000 C   0  0  0  0  0  0  0  0  0  0  0  0
   -1.1349   -8.4489    0.0000 N   0  0  0  0  0  0  0  0  0  0  0  0
   -1.1348   -9.2732    0.0000 C   0  0  0  0  0  0  0  0  0  0  0  0
   -0.4196   -9.6860    0.0000 C   0  0  0  0  0  0  0  0  0  0  0  0
    0.2970   -9.2688    0.0000 C   0  0  0  0  0  0  0  0  0  0  0  0
    0.2933   -8.4459    0.0000 N   0  0  0  0  0  0  0  0  0  0  0  0
    2.3946   -6.3860    0.0000 N   0  0  0  0  0  0  0  0  0  0  0  0
    2.8067   -5.6715    0.0000 C   0  0  0  0  0  0  0  0  0  0  0  0
    3.6317   -5.6711    0.0000 N   0  0  0  0  0  0  0  0  0  0  0  0
    2.3941   -4.9572    0.0000 O   0  0  0  0  0  0  0  0  0  0  0  0
    4.0444   -6.3853    0.0000 C   0  0  0  0  0  0  0  0  0  0  0  0
    4.8694   -6.3850    0.0000 C   0  0  0  0  0  0  0  0  0  0  0  0
   -1.8491   -9.6856    0.0000 C   0  0  0  0  0  0  0  0  0  0  0  0
   -2.6780   -9.6891    0.0000 C   0  0  0  0  0  0  0  0  0  0  0  0
   -2.2654  -10.4036    0.0000 C   0  0  0  0  0  0  0  0  0  0  0  0
 15 10  2  0  0  0  0
  1 10  1  0  0  0  0
  6  4  1  0  0  0  0
  5  6  2  0  0  0  0
 16 17  2  0  0  0  0
  7  8  1  0  0  0  0
 17 18  1  0  0  0  0
  8  9  2  0  0  0  0
 18 19  2  0  0  0  0
  9  5  1  0  0  0  0
 19 20  1  0  0  0  0
  4  1  2  0  0  0  0
 20 21  2  0  0  0  0
 21 16  1  0  0  0  0
  3 16  1  0  0  0  0
  6  7  1  0  0  0  0
  9 22  1  0  0  0  0
 10 11  1  0  0  0  0
 22 23  1  0  0  0  0
 23 24  1  0  0  0  0
 11 12  2  0  0  0  0
 23 25  2  0  0  0  0
  2  3  2  0  0  0  0
 24 26  1  0  0  0  0
 12 13  1  0  0  0  0
 26 27  1  0  0  0  0
  3  7  1  0  0  0  0
 18 28  1  0  0  0  0
 29 28  1  0  0  0  0
 30 29  1  0  0  0  0
 28 30  1  0  0  0  0
 13 14  2  0  0  0  0
  1  2  1  0  0  0  0
 14 15  1  0  0  0  0
M  END
> <From> 
www.bindingDB.org

> <BindingDB Reactant_set_id>
50904825

> <Ligand InChI>
InChI=1S/C22H21N7O/c1-2-24-22(30)28-19-13-29-18(21-25-9-7-17(26-21)14-5-6-14)10-16(11-20(29)27-19)15-4-3-8-23-12-15/h3-4,7-14H,2,5-6H2,1H3,(H2,24,28,30)

> <Ligand InChI Key>
DDRLPPPZBQXPOO-UHFFFAOYSA-N

> <BindingDB MonomerID>
50378434

> <BindingDB Ligand Name>
CHEMBL565971

> <Target Name Assigned by Curator or DataSource>
DNA gyrase subunit B

> <Target Source Organism According to Curator or DataSource>
Streptococcus pneumoniae

> <Ki (nM)>


> <IC50 (nM)>
 330

> <Kd (nM)>


> <EC50 (nM)>


> <kon (M-1-s-1)>


> <koff (s-1)>


> <pH>


> <Temp C>


> <Curation/DataSource>
ChEMBL

> <Article DOI>
10.1016/j.bmcl.2009.07.141

> <PMID>
19683922

> <PubChem AID>


> <Patent Number>


> <Authors>
Starr, JT; Sciotti, RJ; Hanna, DL; Huband, MD; Mullins, LM; Cai, H; Gage, JW; Lockard, M; Rauckhorst, MR; Owen, RM; Lall, MS; Tomilo, M; Chen, H; McCurdy, SP; Barbachyn, MR

> <Institution>
Pfizer Inc.

> <Link to Ligand in BindingDB>
http://www.bindingdb.org/bind/chemsearch/marvin/MolStructure.jsp?monomerid=50378434

> <Link to Ligand-Target Pair in BindingDB>
http://www.bindingdb.org/jsp/dbsearch/PrimarySearch_ki.jsp?energyterm=kJ/mole&tag=pol&polymerid=50005944&target=DNA+gyrase+subunit+B&column=ki&startPg=0&Increment=50&submit=Search

> <Link to Ligand-Target Pair in BindingDB>
http://www.bindingdb.org/jsp/dbsearch/PrimarySearch_ki.jsp?energyterm=kJ/mole&tag=r21&monomerid=50378434&enzyme=DNA+gyrase+subunit+B&column=ki&startPg=0&Increment=50&submit=Search

> <Ligand HET ID in PDB>


> <PDB ID(s) for Ligand-Target Complex>


> <PubChem CID>
45484836

> <PubChem SID>
160857517

> <ChEBI ID of Ligand>


> <ChEMBL ID of Ligand>
CHEMBL565971

> <DrugBank ID of Ligand>


> <IUPHAR_GRAC ID of Ligand>


> <KEGG ID of Ligand>


> <ZINC ID of Ligand>
ZINC45253959

> <Number of Protein Chains in Target (>1 implies a multichain complex)>
1

> <BindingDB Target Chain Sequence>
MTEEIKNLQAQDYDASQIQVLEGLEAVRMRPGMYIGSTSKEGLHHLVWEIVDNSIDEALAGFASHIQVFIEPDDSITVVDDGRGIPVDIQEKTGRPAVETVFTVLHAGGKFGGGGYKVSGGLHGVGSSVVNALSTQLDVHVHKNGKIHYQEYRRGHVVADLEIVGDTDKTGTTVHFTPDPKIFTETTIFDFDKLNKRIQELAFLNRGLQISITDKRQGLEQTKHYHYEGGIASYVEYINENKDVIFDTPIYTDGEMDDITVEVAMQYTTGYHENVMSFANNIHTHEGGTHEQGFRTALTRVINDYARKNKLLKDNEDNLTGEDVREGLTAVISVKHPNPQFEGQTKTKLGNSEVVKITNRLFSEAFSDFLMENPQIAKRIVEKGILAAKARVAAKRAREVTRKKSGLEISNLPGKLADCSSNNPAETELFIVEGDSAGGSAKSGRNREFQAILPIRGKILNVEKASMDKILANEEIRSLFTAMGTGFGAEFDVSKARYQKLVLMTDADVDGAHIRTLLLTLIYRYMKPILEAGYVYIAQPPIYGVKVGSEIKEYIQPGADQEIKLQEALARYSEGRTKPTIQRYKGLGEMDDHQLWETTMDPEHRLMARVSVDDAAEADKIFDMLMGDRVEPRREFIEENAVYSTLDV

> <PDB ID(s) of Target Chain>
4Z2C,4Z2D,4Z2E

> <UniProt (SwissProt) Recommended Name of Target Chain>
DNA gyrase subunit B

> <UniProt (SwissProt) Entry Name of Target Chain>
GYRB_STRPN

> <UniProt (SwissProt) Primary ID of Target Chain>
P0A4L9

> <UniProt (SwissProt) Secondary ID(s) of Target Chain>
P48373

> <UniProt (SwissProt) Alternative ID(s) of Target Chain>


> <UniProt (TrEMBL) Submitted Name of Target Chain>


> <UniProt (TrEMBL) Entry Name of Target Chain>


> <UniProt (TrEMBL) Primary ID of Target Chain>


> <UniProt (TrEMBL) Secondary ID(s) of Target Chain>


> <UniProt (TrEMBL) Alternative ID(s) of Target Chain>


$$$$

  Mrv0541 11241408262D          

 29 32  0  0  0  0            999 V2000
    7.5569   -6.8208    0.0000 C   0  0  0  0  0  0  0  0  0  0  0  0
    7.5557   -7.6482    0.0000 C   0  0  0  0  0  0  0  0  0  0  0  0
    8.2706   -8.0610    0.0000 C   0  0  0  0  0  0  0  0  0  0  0  0
    8.2688   -6.4080    0.0000 C   0  0  0  0  0  0  0  0  0  0  0  0
    9.7754   -6.5631    0.0000 N   0  0  0  0  0  0  0  0  0  0  0  0
    8.9841   -6.8172    0.0000 C   0  0  0  0  0  0  0  0  0  0  0  0
    8.9823   -7.6489    0.0000 N   0  0  0  0  0  0  0  0  0  0  0  0
    9.7735   -7.9063    0.0000 C   0  0  0  0  0  0  0  0  0  0  0  0
   10.2615   -7.2328    0.0000 C   0  0  0  0  0  0  0  0  0  0  0  0
    6.8444   -6.4086    0.0000 C   0  0  0  0  0  0  0  0  0  0  0  0
    6.8456   -5.5825    0.0000 C   0  0  0  0  0  0  0  0  0  0  0  0
    6.1319   -5.1703    0.0000 N   0  0  0  0  0  0  0  0  0  0  0  0
    5.4165   -5.5830    0.0000 C   0  0  0  0  0  0  0  0  0  0  0  0
    5.4193   -6.4123    0.0000 C   0  0  0  0  0  0  0  0  0  0  0  0
    6.1337   -6.8208    0.0000 C   0  0  0  0  0  0  0  0  0  0  0  0
    8.2726   -8.8833    0.0000 C   0  0  0  0  0  0  0  0  0  0  0  0
    7.5567   -9.2956    0.0000 N   0  0  0  0  0  0  0  0  0  0  0  0
    7.5568  -10.1198    0.0000 C   0  0  0  0  0  0  0  0  0  0  0  0
    8.2720  -10.5327    0.0000 C   0  0  0  0  0  0  0  0  0  0  0  0
    8.9886  -10.1154    0.0000 C   0  0  0  0  0  0  0  0  0  0  0  0
    8.9850   -9.2925    0.0000 N   0  0  0  0  0  0  0  0  0  0  0  0
   11.0865   -7.2324    0.0000 N   0  0  0  0  0  0  0  0  0  0  0  0
   11.4987   -6.5178    0.0000 C   0  0  0  0  0  0  0  0  0  0  0  0
   12.3237   -6.5175    0.0000 N   0  0  0  0  0  0  0  0  0  0  0  0
   11.0859   -5.8035    0.0000 O   0  0  0  0  0  0  0  0  0  0  0  0
   12.7365   -7.2318    0.0000 C   0  0  0  0  0  0  0  0  0  0  0  0
   13.5615   -7.2314    0.0000 C   0  0  0  0  0  0  0  0  0  0  0  0
    8.2736  -11.3577    0.0000 C   0  0  0  0  0  0  0  0  0  0  0  0
    7.5599  -11.7716    0.0000 C   0  0  0  0  0  0  0  0  0  0  0  0
  1  2  1  0  0  0  0
 14 15  1  0  0  0  0
 15 10  2  0  0  0  0
  1 10  1  0  0  0  0
  6  4  1  0  0  0  0
  5  6  2  0  0  0  0
 16 17  2  0  0  0  0
  7  8  1  0  0  0  0
 17 18  1  0  0  0  0
  8  9  2  0  0  0  0
 18 19  2  0  0  0  0
  9  5  1  0  0  0  0
 19 20  1  0  0  0  0
  4  1  2  0  0  0  0
 20 21  2  0  0  0  0
 21 16  1  0  0  0  0
  3 16  1  0  0  0  0
  6  7  1  0  0  0  0
  9 22  1  0  0  0  0
 10 11  1  0  0  0  0
 22 23  1  0  0  0  0
 23 24  1  0  0  0  0
 11 12  2  0  0  0  0
 23 25  2  0  0  0  0
  2  3  2  0  0  0  0
 24 26  1  0  0  0  0
 12 13  1  0  0  0  0
 26 27  1  0  0  0  0
  3  7  1  0  0  0  0
 19 28  1  0  0  0  0
 13 14  2  0  0  0  0
 28 29  1  0  0  0  0
M  END
> <From> 
www.bindingDB.org

> <BindingDB Reactant_set_id>
50904819

> <Ligand InChI>
InChI=1S/C21H21N7O/c1-3-14-10-24-20(25-11-14)17-8-16(15-6-5-7-22-12-15)9-19-26-18(13-28(17)19)27-21(29)23-4-2/h5-13H,3-4H2,1-2H3,(H2,23,27,29)

> <Ligand InChI Key>
UTHBRSYQYAZHOI-UHFFFAOYSA-N

> <BindingDB MonomerID>
50378428

> <BindingDB Ligand Name>
CHEMBL578120

> <Target Name Assigned by Curator or DataSource>
DNA gyrase subunit B

> <Target Source Organism According to Curator or DataSource>
Streptococcus pneumoniae

> <Ki (nM)>


> <IC50 (nM)>
 353

> <Kd (nM)>


> <EC50 (nM)>


> <kon (M-1-s-1)>


> <koff (s-1)>


> <pH>


> <Temp C>


> <Curation/DataSource>
ChEMBL

> <Article DOI>
10.1016/j.bmcl.2009.07.141

> <PMID>
19683922

> <PubChem AID>


> <Patent Number>


> <Authors>
Starr, JT; Sciotti, RJ; Hanna, DL; Huband, MD; Mullins, LM; Cai, H; Gage, JW; Lockard, M; Rauckhorst, MR; Owen, RM; Lall, MS; Tomilo, M; Chen, H; McCurdy, SP; Barbachyn, MR

> <Institution>
Pfizer Inc.

> <Link to Ligand in BindingDB>
http://www.bindingdb.org/bind/chemsearch/marvin/MolStructure.jsp?monomerid=50378428

> <Link to Ligand-Target Pair in BindingDB>
http://www.bindingdb.org/jsp/dbsearch/PrimarySearch_ki.jsp?energyterm=kJ/mole&tag=pol&polymerid=50005944&target=DNA+gyrase+subunit+B&column=ki&startPg=0&Increment=50&submit=Search

> <Link to Ligand-Target Pair in BindingDB>
http://www.bindingdb.org/jsp/dbsearch/PrimarySearch_ki.jsp?energyterm=kJ/mole&tag=r21&monomerid=50378428&enzyme=DNA+gyrase+subunit+B&column=ki&startPg=0&Increment=50&submit=Search

> <Ligand HET ID in PDB>


> <PDB ID(s) for Ligand-Target Complex>


> <PubChem CID>
45484770

> <PubChem SID>
160857511

> <ChEBI ID of Ligand>


> <ChEMBL ID of Ligand>
CHEMBL578120

> <DrugBank ID of Ligand>


> <IUPHAR_GRAC ID of Ligand>


> <KEGG ID of Ligand>


> <ZINC ID of Ligand>
ZINC45300662

> <Number of Protein Chains in Target (>1 implies a multichain complex)>
1

> <BindingDB Target Chain Sequence>
MTEEIKNLQAQDYDASQIQVLEGLEAVRMRPGMYIGSTSKEGLHHLVWEIVDNSIDEALAGFASHIQVFIEPDDSITVVDDGRGIPVDIQEKTGRPAVETVFTVLHAGGKFGGGGYKVSGGLHGVGSSVVNALSTQLDVHVHKNGKIHYQEYRRGHVVADLEIVGDTDKTGTTVHFTPDPKIFTETTIFDFDKLNKRIQELAFLNRGLQISITDKRQGLEQTKHYHYEGGIASYVEYINENKDVIFDTPIYTDGEMDDITVEVAMQYTTGYHENVMSFANNIHTHEGGTHEQGFRTALTRVINDYARKNKLLKDNEDNLTGEDVREGLTAVISVKHPNPQFEGQTKTKLGNSEVVKITNRLFSEAFSDFLMENPQIAKRIVEKGILAAKARVAAKRAREVTRKKSGLEISNLPGKLADCSSNNPAETELFIVEGDSAGGSAKSGRNREFQAILPIRGKILNVEKASMDKILANEEIRSLFTAMGTGFGAEFDVSKARYQKLVLMTDADVDGAHIRTLLLTLIYRYMKPILEAGYVYIAQPPIYGVKVGSEIKEYIQPGADQEIKLQEALARYSEGRTKPTIQRYKGLGEMDDHQLWETTMDPEHRLMARVSVDDAAEADKIFDMLMGDRVEPRREFIEENAVYSTLDV

> <PDB ID(s) of Target Chain>
4Z2C,4Z2D,4Z2E

> <UniProt (SwissProt) Recommended Name of Target Chain>
DNA gyrase subunit B

> <UniProt (SwissProt) Entry Name of Target Chain>
GYRB_STRPN

> <UniProt (SwissProt) Primary ID of Target Chain>
P0A4L9

> <UniProt (SwissProt) Secondary ID(s) of Target Chain>
P48373

> <UniProt (SwissProt) Alternative ID(s) of Target Chain>


> <UniProt (TrEMBL) Submitted Name of Target Chain>


> <UniProt (TrEMBL) Entry Name of Target Chain>


> <UniProt (TrEMBL) Primary ID of Target Chain>


> <UniProt (TrEMBL) Secondary ID(s) of Target Chain>


> <UniProt (TrEMBL) Alternative ID(s) of Target Chain>


$$$$

  Mrv0541 11241408262D          

 31 34  0  0  0  0            999 V2000
   -1.8973   -6.5000    0.0000 C   0  0  0  0  0  0  0  0  0  0  0  0
   -1.8984   -7.3273    0.0000 C   0  0  0  0  0  0  0  0  0  0  0  0
   -1.1836   -7.7402    0.0000 C   0  0  0  0  0  0  0  0  0  0  0  0
   -1.1854   -6.0872    0.0000 C   0  0  0  0  0  0  0  0  0  0  0  0
    0.3213   -6.2423    0.0000 N   0  0  0  0  0  0  0  0  0  0  0  0
   -0.4700   -6.4963    0.0000 C   0  0  0  0  0  0  0  0  0  0  0  0
   -0.4719   -7.3281    0.0000 N   0  0  0  0  0  0  0  0  0  0  0  0
    0.3193   -7.5855    0.0000 C   0  0  0  0  0  0  0  0  0  0  0  0
    0.8073   -6.9119    0.0000 C   0  0  0  0  0  0  0  0  0  0  0  0
   -2.6097   -6.0878    0.0000 C   0  0  0  0  0  0  0  0  0  0  0  0
   -2.6086   -5.2617    0.0000 C   0  0  0  0  0  0  0  0  0  0  0  0
   -3.3223   -4.8494    0.0000 N   0  0  0  0  0  0  0  0  0  0  0  0
   -4.0377   -5.2622    0.0000 C   0  0  0  0  0  0  0  0  0  0  0  0
   -4.0348   -6.0914    0.0000 C   0  0  0  0  0  0  0  0  0  0  0  0
   -3.3205   -6.4999    0.0000 C   0  0  0  0  0  0  0  0  0  0  0  0
   -1.1816   -8.5624    0.0000 C   0  0  0  0  0  0  0  0  0  0  0  0
   -1.8975   -8.9747    0.0000 N   0  0  0  0  0  0  0  0  0  0  0  0
   -1.8974   -9.7990    0.0000 C   0  0  0  0  0  0  0  0  0  0  0  0
   -0.4655   -9.7946    0.0000 C   0  0  0  0  0  0  0  0  0  0  0  0
   -0.4692   -8.9717    0.0000 N   0  0  0  0  0  0  0  0  0  0  0  0
    1.6323   -6.9116    0.0000 N   0  0  0  0  0  0  0  0  0  0  0  0
    2.0445   -6.1970    0.0000 C   0  0  0  0  0  0  0  0  0  0  0  0
    1.6318   -5.4827    0.0000 O   0  0  0  0  0  0  0  0  0  0  0  0
    2.8695   -6.1966    0.0000 N   0  0  0  0  0  0  0  0  0  0  0  0
    3.2823   -6.9109    0.0000 C   0  0  0  0  0  0  0  0  0  0  0  0
    3.2818   -5.4820    0.0000 C   0  0  0  0  0  0  0  0  0  0  0  0
    4.1068   -5.4817    0.0000 F   0  0  0  0  0  0  0  0  0  0  0  0
    2.8690   -4.7677    0.0000 F   0  0  0  0  0  0  0  0  0  0  0  0
    3.6875   -4.7625    0.0000 F   0  0  0  0  0  0  0  0  0  0  0  0
   -1.1821  -10.2119    0.0000 C   0  0  0  0  0  0  0  0  0  0  0  0
   -1.1821  -11.0369    0.0000 C   0  0  0  0  0  0  0  0  0  0  0  0
 15 10  2  0  0  0  0
  1 10  1  0  0  0  0
  6  4  1  0  0  0  0
  5  6  2  0  0  0  0
 16 17  2  0  0  0  0
  7  8  1  0  0  0  0
 17 18  1  0  0  0  0
  8  9  2  0  0  0  0
 18 30  2  0  0  0  0
  9  5  1  0  0  0  0
 30 19  1  0  0  0  0
  4  1  2  0  0  0  0
 19 20  2  0  0  0  0
 20 16  1  0  0  0  0
  3 16  1  0  0  0  0
  6  7  1  0  0  0  0
  9 21  1  0  0  0  0
 10 11  1  0  0  0  0
 21 22  1  0  0  0  0
 22 23  2  0  0  0  0
 11 12  2  0  0  0  0
 22 24  1  0  0  0  0
  2  3  2  0  0  0  0
 24 25  1  0  0  0  0
 12 13  1  0  0  0  0
  3  7  1  0  0  0  0
 24 26  1  0  0  0  0
 13 14  2  0  0  0  0
 26 27  1  0  0  0  0
  1  2  1  0  0  0  0
 26 28  1  0  0  0  0
 14 15  1  0  0  0  0
 26 29  1  0  0  0  0
 30 31  1  0  0  0  0
M  END
> <From> 
www.bindingDB.org

> <BindingDB Reactant_set_id>
50904833

> <Ligand InChI>
InChI=1S/C20H16F3N7O/c1-12-8-25-18(26-9-12)15-6-14(13-4-3-5-24-10-13)7-17-27-16(11-30(15)17)28-19(31)29(2)20(21,22)23/h3-11H,1-2H3,(H,28,31)

> <Ligand InChI Key>
XGQBLIMXEPFIQW-UHFFFAOYSA-N

> <BindingDB MonomerID>
50378442

> <BindingDB Ligand Name>
CHEMBL577922

> <Target Name Assigned by Curator or DataSource>
DNA gyrase subunit B

> <Target Source Organism According to Curator or DataSource>
Streptococcus pneumoniae

> <Ki (nM)>


> <IC50 (nM)>
 368

> <Kd (nM)>


> <EC50 (nM)>


> <kon (M-1-s-1)>


> <koff (s-1)>


> <pH>


> <Temp C>


> <Curation/DataSource>
ChEMBL

> <Article DOI>
10.1016/j.bmcl.2009.07.141

> <PMID>
19683922

> <PubChem AID>


> <Patent Number>


> <Authors>
Starr, JT; Sciotti, RJ; Hanna, DL; Huband, MD; Mullins, LM; Cai, H; Gage, JW; Lockard, M; Rauckhorst, MR; Owen, RM; Lall, MS; Tomilo, M; Chen, H; McCurdy, SP; Barbachyn, MR

> <Institution>
Pfizer Inc.

> <Link to Ligand in BindingDB>
http://www.bindingdb.org/bind/chemsearch/marvin/MolStructure.jsp?monomerid=50378442

> <Link to Ligand-Target Pair in BindingDB>
http://www.bindingdb.org/jsp/dbsearch/PrimarySearch_ki.jsp?energyterm=kJ/mole&tag=pol&polymerid=50005944&target=DNA+gyrase+subunit+B&column=ki&startPg=0&Increment=50&submit=Search

> <Link to Ligand-Target Pair in BindingDB>
http://www.bindingdb.org/jsp/dbsearch/PrimarySearch_ki.jsp?energyterm=kJ/mole&tag=r21&monomerid=50378442&enzyme=DNA+gyrase+subunit+B&column=ki&startPg=0&Increment=50&submit=Search

> <Ligand HET ID in PDB>


> <PDB ID(s) for Ligand-Target Complex>


> <PubChem CID>
45484809

> <PubChem SID>
160857525

> <ChEBI ID of Ligand>


> <ChEMBL ID of Ligand>
CHEMBL577922

> <DrugBank ID of Ligand>


> <IUPHAR_GRAC ID of Ligand>


> <KEGG ID of Ligand>


> <ZINC ID of Ligand>
ZINC45299534

> <Number of Protein Chains in Target (>1 implies a multichain complex)>
1

> <BindingDB Target Chain Sequence>
MTEEIKNLQAQDYDASQIQVLEGLEAVRMRPGMYIGSTSKEGLHHLVWEIVDNSIDEALAGFASHIQVFIEPDDSITVVDDGRGIPVDIQEKTGRPAVETVFTVLHAGGKFGGGGYKVSGGLHGVGSSVVNALSTQLDVHVHKNGKIHYQEYRRGHVVADLEIVGDTDKTGTTVHFTPDPKIFTETTIFDFDKLNKRIQELAFLNRGLQISITDKRQGLEQTKHYHYEGGIASYVEYINENKDVIFDTPIYTDGEMDDITVEVAMQYTTGYHENVMSFANNIHTHEGGTHEQGFRTALTRVINDYARKNKLLKDNEDNLTGEDVREGLTAVISVKHPNPQFEGQTKTKLGNSEVVKITNRLFSEAFSDFLMENPQIAKRIVEKGILAAKARVAAKRAREVTRKKSGLEISNLPGKLADCSSNNPAETELFIVEGDSAGGSAKSGRNREFQAILPIRGKILNVEKASMDKILANEEIRSLFTAMGTGFGAEFDVSKARYQKLVLMTDADVDGAHIRTLLLTLIYRYMKPILEAGYVYIAQPPIYGVKVGSEIKEYIQPGADQEIKLQEALARYSEGRTKPTIQRYKGLGEMDDHQLWETTMDPEHRLMARVSVDDAAEADKIFDMLMGDRVEPRREFIEENAVYSTLDV

> <PDB ID(s) of Target Chain>
4Z2C,4Z2D,4Z2E

> <UniProt (SwissProt) Recommended Name of Target Chain>
DNA gyrase subunit B

> <UniProt (SwissProt) Entry Name of Target Chain>
GYRB_STRPN

> <UniProt (SwissProt) Primary ID of Target Chain>
P0A4L9

> <UniProt (SwissProt) Secondary ID(s) of Target Chain>
P48373

> <UniProt (SwissProt) Alternative ID(s) of Target Chain>


> <UniProt (TrEMBL) Submitted Name of Target Chain>


> <UniProt (TrEMBL) Entry Name of Target Chain>


> <UniProt (TrEMBL) Primary ID of Target Chain>


> <UniProt (TrEMBL) Secondary ID(s) of Target Chain>


> <UniProt (TrEMBL) Alternative ID(s) of Target Chain>


$$$$

  Mrv0541 11241408262D          

 32 35  0  0  0  0            999 V2000
   10.5069  -17.9041    0.0000 C   0  0  0  0  0  0  0  0  0  0  0  0
   10.5057  -18.7315    0.0000 C   0  0  0  0  0  0  0  0  0  0  0  0
   11.2206  -19.1444    0.0000 C   0  0  0  0  0  0  0  0  0  0  0  0
   11.2188  -17.4914    0.0000 C   0  0  0  0  0  0  0  0  0  0  0  0
   12.7254  -17.6465    0.0000 N   0  0  0  0  0  0  0  0  0  0  0  0
   11.9341  -17.9005    0.0000 C   0  0  0  0  0  0  0  0  0  0  0  0
   11.9323  -18.7322    0.0000 N   0  0  0  0  0  0  0  0  0  0  0  0
   12.7235  -18.9896    0.0000 C   0  0  0  0  0  0  0  0  0  0  0  0
   13.2115  -18.3161    0.0000 C   0  0  0  0  0  0  0  0  0  0  0  0
    9.7944  -17.4920    0.0000 C   0  0  0  0  0  0  0  0  0  0  0  0
    9.7956  -16.6659    0.0000 C   0  0  0  0  0  0  0  0  0  0  0  0
    9.0819  -16.2536    0.0000 C   0  0  0  0  0  0  0  0  0  0  0  0
    8.3665  -16.6663    0.0000 N   0  0  0  0  0  0  0  0  0  0  0  0
   11.2226  -19.9666    0.0000 C   0  0  0  0  0  0  0  0  0  0  0  0
   10.5067  -20.3789    0.0000 N   0  0  0  0  0  0  0  0  0  0  0  0
   10.5068  -21.2031    0.0000 C   0  0  0  0  0  0  0  0  0  0  0  0
   11.2220  -21.6161    0.0000 C   0  0  0  0  0  0  0  0  0  0  0  0
   11.9386  -21.1987    0.0000 C   0  0  0  0  0  0  0  0  0  0  0  0
   11.9350  -20.3759    0.0000 N   0  0  0  0  0  0  0  0  0  0  0  0
   14.0365  -18.3158    0.0000 N   0  0  0  0  0  0  0  0  0  0  0  0
   14.4487  -17.6011    0.0000 C   0  0  0  0  0  0  0  0  0  0  0  0
   14.0359  -16.8868    0.0000 O   0  0  0  0  0  0  0  0  0  0  0  0
   15.2737  -17.6008    0.0000 N   0  0  0  0  0  0  0  0  0  0  0  0
   15.6865  -18.3151    0.0000 C   0  0  0  0  0  0  0  0  0  0  0  0
   16.5115  -18.3148    0.0000 C   0  0  0  0  0  0  0  0  0  0  0  0
   11.2236  -22.4411    0.0000 C   0  0  0  0  0  0  0  0  0  0  0  0
    8.3662  -17.4913    0.0000 C   0  0  0  0  0  0  0  0  0  0  0  0
    9.0806  -17.9040    0.0000 C   0  0  0  0  0  0  0  0  0  0  0  0
    9.0821  -15.4286    0.0000 O   0  0  0  0  0  0  0  0  0  0  0  0
    7.6521  -16.2536    0.0000 C   0  0  0  0  0  0  0  0  0  0  0  0
    7.6524  -15.4286    0.0000 C   0  0  0  0  0  0  0  0  0  0  0  0
    6.9380  -15.0159    0.0000 F   0  0  0  0  0  0  0  0  0  0  0  0
  6  4  1  0  0  0  0
 15 16  2  0  0  0  0
  5  6  2  0  0  0  0
 16 17  1  0  0  0  0
  7  8  1  0  0  0  0
 17 18  2  0  0  0  0
  8  9  2  0  0  0  0
 18 19  1  0  0  0  0
 19 14  2  0  0  0  0
  3 14  1  0  0  0  0
  9  5  1  0  0  0  0
  9 20  1  0  0  0  0
  4  1  2  0  0  0  0
 20 21  1  0  0  0  0
  6  7  1  0  0  0  0
 21 22  2  0  0  0  0
 10 11  2  0  0  0  0
 21 23  1  0  0  0  0
 23 24  1  0  0  0  0
 11 12  1  0  0  0  0
 24 25  1  0  0  0  0
  2  3  2  0  0  0  0
 17 26  1  0  0  0  0
 12 13  1  0  0  0  0
 13 27  1  0  0  0  0
 28 10  1  0  0  0  0
 27 28  2  0  0  0  0
  1 10  1  0  0  0  0
 12 29  2  0  0  0  0
  3  7  1  0  0  0  0
 13 30  1  0  0  0  0
  1  2  1  0  0  0  0
 30 31  1  0  0  0  0
 14 15  1  0  0  0  0
 31 32  1  0  0  0  0
M  END
> <From> 
www.bindingDB.org

> <BindingDB Reactant_set_id>
50904810

> <Ligand InChI>
InChI=1S/C22H22FN7O2/c1-3-24-22(32)28-18-13-30-17(21-25-11-14(2)12-26-21)8-16(9-19(30)27-18)15-4-6-29(7-5-23)20(31)10-15/h4,6,8-13H,3,5,7H2,1-2H3,(H2,24,28,32)

> <Ligand InChI Key>
RCDQRGVAJLELSV-UHFFFAOYSA-N

> <BindingDB MonomerID>
50378424

> <BindingDB Ligand Name>
CHEMBL565743

> <Target Name Assigned by Curator or DataSource>
DNA gyrase subunit B

> <Target Source Organism According to Curator or DataSource>
Streptococcus pneumoniae

> <Ki (nM)>


> <IC50 (nM)>
 376

> <Kd (nM)>


> <EC50 (nM)>


> <kon (M-1-s-1)>


> <koff (s-1)>


> <pH>


> <Temp C>


> <Curation/DataSource>
ChEMBL

> <Article DOI>
10.1016/j.bmcl.2009.07.141

> <PMID>
19683922

> <PubChem AID>


> <Patent Number>


> <Authors>
Starr, JT; Sciotti, RJ; Hanna, DL; Huband, MD; Mullins, LM; Cai, H; Gage, JW; Lockard, M; Rauckhorst, MR; Owen, RM; Lall, MS; Tomilo, M; Chen, H; McCurdy, SP; Barbachyn, MR

> <Institution>
Pfizer Inc.

> <Link to Ligand in BindingDB>
http://www.bindingdb.org/bind/chemsearch/marvin/MolStructure.jsp?monomerid=50378424

> <Link to Ligand-Target Pair in BindingDB>
http://www.bindingdb.org/jsp/dbsearch/PrimarySearch_ki.jsp?energyterm=kJ/mole&tag=pol&polymerid=50005944&target=DNA+gyrase+subunit+B&column=ki&startPg=0&Increment=50&submit=Search

> <Link to Ligand-Target Pair in BindingDB>
http://www.bindingdb.org/jsp/dbsearch/PrimarySearch_ki.jsp?energyterm=kJ/mole&tag=r21&monomerid=50378424&enzyme=DNA+gyrase+subunit+B&column=ki&startPg=0&Increment=50&submit=Search

> <Ligand HET ID in PDB>


> <PDB ID(s) for Ligand-Target Complex>


> <PubChem CID>
45484831

> <PubChem SID>
160857507

> <ChEBI ID of Ligand>


> <ChEMBL ID of Ligand>
CHEMBL565743

> <DrugBank ID of Ligand>


> <IUPHAR_GRAC ID of Ligand>


> <KEGG ID of Ligand>


> <ZINC ID of Ligand>
ZINC45253032

> <Number of Protein Chains in Target (>1 implies a multichain complex)>
1

> <BindingDB Target Chain Sequence>
MTEEIKNLQAQDYDASQIQVLEGLEAVRMRPGMYIGSTSKEGLHHLVWEIVDNSIDEALAGFASHIQVFIEPDDSITVVDDGRGIPVDIQEKTGRPAVETVFTVLHAGGKFGGGGYKVSGGLHGVGSSVVNALSTQLDVHVHKNGKIHYQEYRRGHVVADLEIVGDTDKTGTTVHFTPDPKIFTETTIFDFDKLNKRIQELAFLNRGLQISITDKRQGLEQTKHYHYEGGIASYVEYINENKDVIFDTPIYTDGEMDDITVEVAMQYTTGYHENVMSFANNIHTHEGGTHEQGFRTALTRVINDYARKNKLLKDNEDNLTGEDVREGLTAVISVKHPNPQFEGQTKTKLGNSEVVKITNRLFSEAFSDFLMENPQIAKRIVEKGILAAKARVAAKRAREVTRKKSGLEISNLPGKLADCSSNNPAETELFIVEGDSAGGSAKSGRNREFQAILPIRGKILNVEKASMDKILANEEIRSLFTAMGTGFGAEFDVSKARYQKLVLMTDADVDGAHIRTLLLTLIYRYMKPILEAGYVYIAQPPIYGVKVGSEIKEYIQPGADQEIKLQEALARYSEGRTKPTIQRYKGLGEMDDHQLWETTMDPEHRLMARVSVDDAAEADKIFDMLMGDRVEPRREFIEENAVYSTLDV

> <PDB ID(s) of Target Chain>
4Z2C,4Z2D,4Z2E

> <UniProt (SwissProt) Recommended Name of Target Chain>
DNA gyrase subunit B

> <UniProt (SwissProt) Entry Name of Target Chain>
GYRB_STRPN

> <UniProt (SwissProt) Primary ID of Target Chain>
P0A4L9

> <UniProt (SwissProt) Secondary ID(s) of Target Chain>
P48373

> <UniProt (SwissProt) Alternative ID(s) of Target Chain>


> <UniProt (TrEMBL) Submitted Name of Target Chain>


> <UniProt (TrEMBL) Entry Name of Target Chain>


> <UniProt (TrEMBL) Primary ID of Target Chain>


> <UniProt (TrEMBL) Secondary ID(s) of Target Chain>


> <UniProt (TrEMBL) Alternative ID(s) of Target Chain>


$$$$

  Mrv0541 11231413392D          

 46 50  0  0  0  0            999 V2000
    9.3224  -13.1884    0.0000 C   0  0  0  0  0  0  0  0  0  0  0  0
    8.6123  -13.6080    0.0000 C   0  0  0  0  0  0  0  0  0  0  0  0
    9.3136  -12.3634    0.0000 O   0  0  0  0  0  0  0  0  0  0  0  0
    7.8199  -13.3685    0.0000 C   0  0  0  0  0  0  0  0  0  0  0  0
    7.3470  -14.0445    0.0000 C   0  0  0  0  0  0  0  0  0  0  0  0
    7.8438  -14.7032    0.0000 C   0  0  0  0  0  0  0  0  0  0  0  0
    8.6236  -14.4341    0.0000 N   0  0  0  0  0  0  0  0  0  0  0  0
    7.7864  -15.5251    0.0000 C   0  0  0  0  0  0  0  0  0  0  0  0
   10.0411  -13.5934    0.0000 O   0  0  0  0  0  0  0  0  0  0  0  0
   12.1720  -12.3148    0.0000 C   0  0  0  0  0  0  0  0  0  0  0  0
   11.4462  -11.9132    0.0000 C   0  0  1  0  0  0  0  0  0  0  0  0
   10.7394  -12.3388    0.0000 C   0  0  2  0  0  0  0  0  0  0  0  0
   10.7523  -13.1676    0.0000 C   0  0  2  0  0  0  0  0  0  0  0  0
   11.4782  -13.5691    0.0000 C   0  0  1  0  0  0  0  0  0  0  0  0
   12.1912  -13.1419    0.0000 O   0  0  0  0  0  0  0  0  0  0  0  0
   11.4925  -14.3940    0.0000 O   0  0  0  0  0  0  0  0  0  0  0  0
   12.2122  -14.8053    0.0000 C   0  0  0  0  0  0  0  0  0  0  0  0
   12.2115  -15.6298    0.0000 C   0  0  0  0  0  0  0  0  0  0  0  0
   12.9271  -14.3910    0.0000 C   0  0  0  0  0  0  0  0  0  0  0  0
   13.6416  -14.8088    0.0000 C   0  0  0  0  0  0  0  0  0  0  0  0
   13.6397  -15.6334    0.0000 C   0  0  0  0  0  0  0  0  0  0  0  0
   12.9244  -16.0449    0.0000 C   0  0  0  0  0  0  0  0  0  0  0  0
   12.9232  -16.8656    0.0000 O   0  0  0  0  0  0  0  0  0  0  0  0
   13.6355  -17.2810    0.0000 C   0  0  0  0  0  0  0  0  0  0  0  0
   14.3509  -16.8695    0.0000 C   0  0  0  0  0  0  0  0  0  0  0  0
   14.3537  -16.0425    0.0000 C   0  0  0  0  0  0  0  0  0  0  0  0
   11.4961  -16.0407    0.0000 Cl  0  0  0  0  0  0  0  0  0  0  0  0
   15.0683  -15.6301    0.0000 O   0  0  0  0  0  0  0  0  0  0  0  0
   13.6332  -18.1060    0.0000 O   0  0  0  0  0  0  0  0  0  0  0  0
   15.0643  -17.2837    0.0000 N   0  0  0  0  0  0  0  0  0  0  0  0
   15.0622  -18.1087    0.0000 C   0  0  0  0  0  0  0  0  0  0  0  0
   14.3467  -18.5193    0.0000 O   0  0  0  0  0  0  0  0  0  0  0  0
   15.7757  -18.5230    0.0000 C   0  0  0  0  0  0  0  0  0  0  0  0
   15.7707  -19.3471    0.0000 C   0  0  0  0  0  0  0  0  0  0  0  0
   16.4833  -19.7613    0.0000 C   0  0  0  0  0  0  0  0  0  0  0  0
   17.1997  -19.3506    0.0000 C   0  0  0  0  0  0  0  0  0  0  0  0
   17.1991  -18.5213    0.0000 C   0  0  0  0  0  0  0  0  0  0  0  0
   16.4860  -18.1108    0.0000 C   0  0  0  0  0  0  0  0  0  0  0  0
   17.9137  -19.7639    0.0000 O   0  0  0  0  0  0  0  0  0  0  0  0
   17.9133  -18.1081    0.0000 C   0  0  0  0  0  0  0  0  0  0  0  0
   12.9995  -12.2959    0.0000 C   0  0  0  0  0  0  0  0  0  0  0  0
   12.1612  -11.4917    0.0000 C   0  0  0  0  0  0  0  0  0  0  0  0
   11.4311  -11.0884    0.0000 O   0  0  0  0  0  0  0  0  0  0  0  0
   12.1378  -10.6629    0.0000 C   0  0  0  0  0  0  0  0  0  0  0  0
   10.0181  -11.9384    0.0000 O   0  0  0  0  0  0  0  0  0  0  0  0
   16.4808  -20.5863    0.0000 C   0  0  0  0  0  0  0  0  0  0  0  0
  4  5  1  0  0  0  0
  5  6  2  0  0  0  0
  6  7  1  0  0  0  0
  7  2  1  0  0  0  0
 21 26  1  0  0  0  0
 22 23  1  0  0  0  0
 23 24  1  0  0  0  0
 24 25  1  0  0  0  0
 25 26  2  0  0  0  0
 10 15  1  0  0  0  0
 18 27  1  0  0  0  0
 12 11  1  0  0  0  0
 26 28  1  0  0  0  0
 12 13  1  0  0  0  0
 24 29  2  0  0  0  0
 13 14  1  0  0  0  0
 25 30  1  0  0  0  0
 14 15  1  0  0  0  0
 30 31  1  0  0  0  0
  1  2  1  0  0  0  0
 31 32  2  0  0  0  0
 14 16  1  1  0  0  0
 31 33  1  0  0  0  0
  6  8  1  0  0  0  0
 33 34  2  0  0  0  0
 16 17  1  0  0  0  0
 34 35  1  0  0  0  0
 17 18  1  0  0  0  0
 35 36  2  0  0  0  0
 36 37  1  0  0  0  0
  1  9  1  0  0  0  0
 37 38  2  0  0  0  0
 38 33  1  0  0  0  0
 17 19  2  0  0  0  0
 36 39  1  0  0  0  0
 18 22  2  0  0  0  0
 37 40  1  0  0  0  0
 20 19  1  0  0  0  0
 10 41  1  0  0  0  0
 20 21  2  0  0  0  0
 10 42  1  0  0  0  0
 11 10  1  0  0  0  0
 11 43  1  1  0  0  0
 21 22  1  0  0  0  0
 43 44  1  0  0  0  0
  1  3  2  0  0  0  0
 12 45  1  6  0  0  0
 13  9  1  6  0  0  0
  2  4  2  0  0  0  0
 35 46  1  0  0  0  0
M  END
> <From> 
www.bindingDB.org

> <BindingDB Reactant_set_id>
50607668

> <Ligand InChI>
InChI=1S/C32H33ClN2O11/c1-13-11-16(12-14(2)22(13)36)28(39)35-21-23(37)17-8-10-19(20(33)25(17)44-30(21)41)43-31-26(24(38)27(42-6)32(4,5)46-31)45-29(40)18-9-7-15(3)34-18/h7-12,24,26-27,31,34,36-38H,1-6H3,(H,35,39)/t24-,26+,27+,31+/m0/s1

> <Ligand InChI Key>
WZYKNCBLHHYOFY-FWTOBACQSA-N

> <BindingDB MonomerID>
50330298

> <BindingDB Ligand Name>
(2S,3R,4R,5R)-2-(8-chloro-4-hydroxy-3-(4-hydroxy-3,5-dimethylbenzamido)-2-oxo-2H-chromen-7-yloxy)-4-hydroxy-5-methoxy-6,6-dimethyltetrahydro-2H-pyran-3-yl 5-methyl-1H-pyrrole-2-carboxylate::CHEMBL1275895

> <Target Name Assigned by Curator or DataSource>
DNA Gyrase Subunit B

> <Target Source Organism According to Curator or DataSource>
Escherichia coli

> <Ki (nM)>


> <IC50 (nM)>
 376

> <Kd (nM)>


> <EC50 (nM)>


> <kon (M-1-s-1)>


> <koff (s-1)>


> <pH>


> <Temp C>


> <Curation/DataSource>
ChEMBL

> <Article DOI>
10.1128/AAC.01235-07

> <PMID>
18347114

> <PubChem AID>


> <Patent Number>


> <Authors>
Anderle, C; Stieger, M; Burrell, M; Reinelt, S; Maxwell, A; Page, M; Heide, L

> <Institution>
Universit&#228;t T&#252;bingen

> <Link to Ligand in BindingDB>
http://www.bindingdb.org/bind/chemsearch/marvin/MolStructure.jsp?monomerid=50330298

> <Link to Ligand-Target Pair in BindingDB>
http://www.bindingdb.org/jsp/dbsearch/PrimarySearch_ki.jsp?energyterm=kJ/mole&tag=pol&polymerid=2630&target=DNA+Gyrase+Subunit+B&column=ki&startPg=0&Increment=50&submit=Search

> <Link to Ligand-Target Pair in BindingDB>
http://www.bindingdb.org/jsp/dbsearch/PrimarySearch_ki.jsp?energyterm=kJ/mole&tag=r21&monomerid=50330298&enzyme=DNA+Gyrase+Subunit+B&column=ki&startPg=0&Increment=50&submit=Search

> <Ligand HET ID in PDB>


> <PDB ID(s) for Ligand-Target Complex>


> <PubChem CID>
54730381

> <PubChem SID>
123109413

> <ChEBI ID of Ligand>


> <ChEMBL ID of Ligand>
CHEMBL1275895

> <DrugBank ID of Ligand>


> <IUPHAR_GRAC ID of Ligand>


> <KEGG ID of Ligand>


> <ZINC ID of Ligand>
ZINC72136394

> <Number of Protein Chains in Target (>1 implies a multichain complex)>
1

> <BindingDB Target Chain Sequence>
MSNSYDSSSIKVLKGLDAVRKRPGMYIGDTDDGTGLHHMVFEVVDNAIDEALAGHCKEII
VTIHADNSVSVQDDGRGIPTGIHPEEGVSAAEVIMTVLHAGGKFDDNSYKVSGGLHGVGV
SVVNALSQKLELVIQREGKIHRQIYEHGVPQAPLAVTGETEKTGTMVRFWPSLETFTNVT
EFEYEILAKRLRELSFLNSGVSIRLRDKRDGKEDHFHYEGGIKAFVEYLNKNKTPIHPNI
FYFSTEKDGIGVEVALQWNDGFQENIYCFTNNIPQRDGGTHLAGFRAAMTRTLNAYMDKE
GYSKKAKVSATGDDAREGLIAVVSVKVPDPKFSSQTKDKLVSSEVKSAVEQQMNELLAEY
LLENPTDAKIVVGKIIDAARAREAARRAREMTRRKGALDLAGLPGKLADCQERDPALSEL
YLVEGDSAGGSAKQGRNRKNQAILPLKGKILNVEKARFDKMLSSQEVATLITALGCGIGR
DEYNPDKLRYHSIIIMTDADVDGSHIRTLLLTFFYRQMPEIVERGHVYIAQPPLYKVKKG
KQEQYIKDDEAMDQYQISIALDGATLHTNASAPALAGEALEKLVSEYNATQKMINRMERR
YPKAMLKELIYQPTLTEADLSDEQTVTRWVNALVSELNDKEQHGSQWKFDVHTNAEQNLF
EPIVRVRTHGVDTDYPLDHEFITGGEYRRICTLGEKLRGLLEEDAFIERGERRQPVASFE
QALDWLVKESRRGLSIQRYKGLGEMNPEQLWETTMDPESRRMLRVTVKDAIAADQLFTTL
MGDAVEPRRAFIEENALKAANIDI

> <PDB ID(s) of Target Chain>
1KZN,3G7E,3NUH,4DUH,4HYP,4KFG,4PRV,4PRX,4PU9,4WUB,4WUC,4WUD,4XTJ,4ZVI,5L3J,5MMN,5MMO,5MMP,5Z4H,5Z4O,5Z9B,5Z9E,5Z9F,5Z9L,5Z9M,5Z9N,5Z9Q,6ENG,6F86,6F8J,6F94,6F96

> <UniProt (SwissProt) Recommended Name of Target Chain>
DNA gyrase subunit B

> <UniProt (SwissProt) Entry Name of Target Chain>
GYRB_ECOLI

> <UniProt (SwissProt) Primary ID of Target Chain>
P0AES6

> <UniProt (SwissProt) Secondary ID(s) of Target Chain>
O08438,P06982,Q2M811

> <UniProt (SwissProt) Alternative ID(s) of Target Chain>


> <UniProt (TrEMBL) Submitted Name of Target Chain>


> <UniProt (TrEMBL) Entry Name of Target Chain>


> <UniProt (TrEMBL) Primary ID of Target Chain>


> <UniProt (TrEMBL) Secondary ID(s) of Target Chain>


> <UniProt (TrEMBL) Alternative ID(s) of Target Chain>


$$$$

  SciTegic09291413392D

 31 34  0  0  0  0            999 V2000
   22.2650   -1.7375    0.0000 C   0  0
   22.2638   -2.5571    0.0000 C   0  0
   22.9719   -2.9660    0.0000 N   0  0
   22.9701   -1.3287    0.0000 C   0  0
   23.6787   -1.7339    0.0000 C   0  0
   23.6835   -2.5571    0.0000 C   0  0
   24.4679   -2.8069    0.0000 S   0  0
   24.9479   -2.1381    0.0000 C   0  0
   24.4601   -1.4750    0.0000 N   0  0
   21.5592   -1.3293    0.0000 C   0  0
   21.5604   -0.5110    0.0000 C   0  0
   20.8534   -0.1026    0.0000 C   0  0
   20.1448   -0.5114    0.0000 C   0  0
   20.1477   -1.3329    0.0000 N   0  0
   25.7651   -2.1333    0.0000 N   0  0
   26.1695   -1.4231    0.0000 C   0  0
   26.9867   -1.4183    0.0000 N   0  0
   25.7567   -0.7179    0.0000 O   0  0
   27.3911   -0.7082    0.0000 C   0  0
   28.2083   -0.7034    0.0000 C   0  0
   21.5558   -2.9651    0.0000 O   0  0
   20.8484   -2.5559    0.0000 C   0  0
   28.6127    0.0098    0.0000 C   0  0
   20.8491   -1.7388    0.0000 C   0  0
   20.1404   -2.9640    0.0000 C   0  0
   19.4330   -2.5548    0.0000 N   0  0
   19.4378   -1.7368    0.0000 C   0  0
   18.7345   -1.3277    0.0000 C   0  0
   18.0241   -1.7323    0.0000 O   0  0
   18.0215   -2.5504    0.0000 C   0  0
   18.7293   -2.9640    0.0000 C   0  0
  1  2  2  0
  2  3  1  0
  3  6  2  0
  5  4  2  0
  4  1  1  0
  5  6  1  0
  6  7  1  0
  7  8  1  0
  8  9  2  0
  9  5  1  0
 10 11  2  0
 11 12  1  0
 12 13  2  0
 13 14  1  0
 14 24  2  0
 24 10  1  0
  1 10  1  0
  8 15  1  0
 15 16  1  0
 16 17  1  0
 16 18  2  0
 17 19  1  0
 19 20  1  0
  2 21  1  0
 21 22  1  0
 20 23  2  0
 22 25  1  0
 25 26  1  0
 26 27  1  0
 26 31  1  0
 27 28  1  0
 28 29  1  0
 29 30  1  0
 30 31  1  0
M  END
> <From> 
www.bindingDB.org

> <BindingDB Reactant_set_id>
50089896

> <Ligand InChI>
InChI=1S/C21H24N6O3S/c1-2-5-23-20(28)26-21-24-17-13-16(15-4-3-6-22-14-15)18(25-19(17)31-21)30-12-9-27-7-10-29-11-8-27/h2-4,6,13-14H,1,5,7-12H2,(H2,23,24,26,28)

> <Ligand InChI Key>
AQPJGKCFASTZAW-UHFFFAOYSA-N

> <BindingDB MonomerID>
50010343

> <BindingDB Ligand Name>
CHEMBL3263587

> <Target Name Assigned by Curator or DataSource>
DNA gyrase subunit B

> <Target Source Organism According to Curator or DataSource>


> <Ki (nM)>


> <IC50 (nM)>
 400

> <Kd (nM)>


> <EC50 (nM)>


> <kon (M-1-s-1)>


> <koff (s-1)>


> <pH>


> <Temp C>


> <Curation/DataSource>
ChEMBL

> <Article DOI>
10.1021/jm401268f

> <PMID>
24088190

> <PubChem AID>


> <Patent Number>


> <Authors>
Ahuja, V; Ahuja, V; Basavarajappa, H; Basavarajappa, H; P, SH; P, SH; Boriack-Sjodin, PA; Boriack-Sjodin, PA; McKinney, D; McKinney, D; Ganguly, S; Ganguly, S; Kranthi, U; Kranthi, U; Gaonkar, S; Gaonkar, S; Jena, Lk; Jena, Lk; Ghorpade, SR; Ghorpade, SR; Ghosh, A; Ghosh, A; Barde, S; Barde, S; Kale, MG; Kale, MG; Koushik, K; Koushik, K; Kumar, CN; Kumar, CN; Manjunatha, MR; Manjunatha, MR; Ogg, D; Ogg, D; Panduga, V; Panduga, V; Ramya, VK; Ramya, VK; Reddy, J; Reddy, J; Kumar, KN; Kumar, KN; Giridhar, J; Giridhar, J; Rudrapatna, S; Rudrapatna, S; Sharma, S; Sharma, S; Tucker, JA; Tucker, JA; Vachaspati, P; Vachaspati, P; Waterson, D; Waterson, D; de Sousa, SM; de Sousa, SM

> <Institution>
AstraZeneca India Pvt. Ltd.

> <Link to Ligand in BindingDB>
http://www.bindingdb.org/bind/chemsearch/marvin/MolStructure.jsp?monomerid=50010343

> <Link to Ligand-Target Pair in BindingDB>
http://www.bindingdb.org/jsp/dbsearch/PrimarySearch_ki.jsp?energyterm=kJ/mole&tag=pol&polymerid=50006452&target=DNA+gyrase+subunit+B&column=ki&startPg=0&Increment=50&submit=Search

> <Link to Ligand-Target Pair in BindingDB>
http://www.bindingdb.org/jsp/dbsearch/PrimarySearch_ki.jsp?energyterm=kJ/mole&tag=r21&monomerid=50010343&enzyme=DNA+gyrase+subunit+B&column=ki&startPg=0&Increment=50&submit=Search

> <Ligand HET ID in PDB>
28G

> <PDB ID(s) for Ligand-Target Complex>
4MBC

> <PubChem CID>
59352802

> <PubChem SID>
103923157

> <ChEBI ID of Ligand>


> <ChEMBL ID of Ligand>
CHEMBL3263587

> <DrugBank ID of Ligand>


> <IUPHAR_GRAC ID of Ligand>


> <KEGG ID of Ligand>


> <ZINC ID of Ligand>
ZINC13446684

> <Number of Protein Chains in Target (>1 implies a multichain complex)>
1

> <BindingDB Target Chain Sequence>
MAAQKNNAPKEYGADSITILEGLEAVRKRPGMYIGSTGERGLHHLIWEVVDNAVDEAMAGFATRVDVKIHADGSVEVRDDGRGIPVEMHATGMPTIDVVMTQLHAGGKFDGETYAVSGGLHGVGVSVVNALSTRLEATVLRDGYEWFQYYDRSVPGKLKQGGETKETGTTIRFWADPEIFETTDYNFETVARRLQEMAFLNKGLTIELTDERVTAEEVVDDVVKDTAEAPKTADEKAAEATGPSKVKHRVFHYPGGLVDYVKHINRTKTPIQQSIIDFDGKGPGHEVEIAMQWNAGYSESVHTFANTINTHEGGTHEEGFRAALTSVVNRYAKDKKLLKDKDPNLTGDDIREGLAAVISVKVAEPQFEGQTKTKLGNTEVKSFVQKICNEQLQHWFEANPAEAKTVVNKAVSSAQARIAARKARELVRRKSATDIGGLPGKLADCRSTDPSKSELYVVEGDSAGGSAKSGRDSMFQAILPLRGKIINVEKARIDRVLKNTEVQSIITALGTGIHDEFDISKLRYHKIVLMADADVDGQHISTLLLTLLFRFMKPLVENGHIFLAQPPLYKLKWQRSEPEFAYSDRERDGLLEAGRAAGKKINVDDGIQRYKGLGEMDAKELWETTMDPSVRVLRQVTLDDAAAADELFSILMGEDVEARRSFITRNAKDVRFLDV

> <PDB ID(s) of Target Chain>
4BAE

> <UniProt (SwissProt) Recommended Name of Target Chain>
DNA gyrase subunit B

> <UniProt (SwissProt) Entry Name of Target Chain>
GYRB_MYCSM

> <UniProt (SwissProt) Primary ID of Target Chain>
P0C559

> <UniProt (SwissProt) Secondary ID(s) of Target Chain>
P48355,Q59555

> <UniProt (SwissProt) Alternative ID(s) of Target Chain>


> <UniProt (TrEMBL) Submitted Name of Target Chain>


> <UniProt (TrEMBL) Entry Name of Target Chain>


> <UniProt (TrEMBL) Primary ID of Target Chain>


> <UniProt (TrEMBL) Secondary ID(s) of Target Chain>


> <UniProt (TrEMBL) Alternative ID(s) of Target Chain>


$$$$

  Mrv0541 11241408262D          

 33 36  0  0  0  0            999 V2000
   11.1819  -10.0500    0.0000 C   0  0  0  0  0  0  0  0  0  0  0  0
   11.1807  -10.8773    0.0000 C   0  0  0  0  0  0  0  0  0  0  0  0
   11.8956  -11.2902    0.0000 C   0  0  0  0  0  0  0  0  0  0  0  0
   11.8938   -9.6372    0.0000 C   0  0  0  0  0  0  0  0  0  0  0  0
   13.4004   -9.7923    0.0000 N   0  0  0  0  0  0  0  0  0  0  0  0
   12.6091  -10.0463    0.0000 C   0  0  0  0  0  0  0  0  0  0  0  0
   12.6073  -10.8781    0.0000 N   0  0  0  0  0  0  0  0  0  0  0  0
   13.3985  -11.1355    0.0000 C   0  0  0  0  0  0  0  0  0  0  0  0
   13.8865  -10.4619    0.0000 C   0  0  0  0  0  0  0  0  0  0  0  0
   10.4694   -9.6378    0.0000 C   0  0  0  0  0  0  0  0  0  0  0  0
   10.4706   -8.8117    0.0000 C   0  0  0  0  0  0  0  0  0  0  0  0
    9.7569   -8.3994    0.0000 C   0  0  0  0  0  0  0  0  0  0  0  0
    9.0415   -8.8122    0.0000 N   0  0  0  0  0  0  0  0  0  0  0  0
   11.8976  -12.1124    0.0000 C   0  0  0  0  0  0  0  0  0  0  0  0
   11.1817  -12.5247    0.0000 N   0  0  0  0  0  0  0  0  0  0  0  0
   11.1818  -13.3490    0.0000 C   0  0  0  0  0  0  0  0  0  0  0  0
   11.8970  -13.7619    0.0000 C   0  0  0  0  0  0  0  0  0  0  0  0
   12.6136  -13.3446    0.0000 C   0  0  0  0  0  0  0  0  0  0  0  0
   12.6100  -12.5217    0.0000 N   0  0  0  0  0  0  0  0  0  0  0  0
   14.7115  -10.4616    0.0000 N   0  0  0  0  0  0  0  0  0  0  0  0
   15.1237   -9.7470    0.0000 C   0  0  0  0  0  0  0  0  0  0  0  0
   14.7109   -9.0327    0.0000 O   0  0  0  0  0  0  0  0  0  0  0  0
   15.9487   -9.7466    0.0000 N   0  0  0  0  0  0  0  0  0  0  0  0
   16.3615  -10.4609    0.0000 C   0  0  0  0  0  0  0  0  0  0  0  0
   17.1865  -10.4606    0.0000 C   0  0  0  0  0  0  0  0  0  0  0  0
   11.8986  -14.5869    0.0000 C   0  0  0  0  0  0  0  0  0  0  0  0
    9.0412   -9.6372    0.0000 C   0  0  0  0  0  0  0  0  0  0  0  0
    9.7556  -10.0499    0.0000 C   0  0  0  0  0  0  0  0  0  0  0  0
    9.7571   -7.5744    0.0000 O   0  0  0  0  0  0  0  0  0  0  0  0
    8.3271   -8.3994    0.0000 C   0  0  0  0  0  0  0  0  0  0  0  0
    8.3274   -7.5744    0.0000 C   0  0  0  0  0  0  0  0  0  0  0  0
    7.6130   -7.1617    0.0000 O   0  0  0  0  0  0  0  0  0  0  0  0
    7.6133   -6.3367    0.0000 C   0  0  0  0  0  0  0  0  0  0  0  0
 15 16  2  0  0  0  0
  5  6  2  0  0  0  0
 16 17  1  0  0  0  0
  7  8  1  0  0  0  0
 17 18  2  0  0  0  0
  8  9  2  0  0  0  0
 18 19  1  0  0  0  0
 19 14  2  0  0  0  0
  3 14  1  0  0  0  0
  9  5  1  0  0  0  0
  9 20  1  0  0  0  0
  4  1  2  0  0  0  0
 20 21  1  0  0  0  0
  6  7  1  0  0  0  0
 21 22  2  0  0  0  0
 10 11  2  0  0  0  0
 21 23  1  0  0  0  0
 23 24  1  0  0  0  0
 11 12  1  0  0  0  0
 24 25  1  0  0  0  0
  2  3  2  0  0  0  0
 17 26  1  0  0  0  0
 12 13  1  0  0  0  0
 13 27  1  0  0  0  0
 28 10  1  0  0  0  0
 27 28  2  0  0  0  0
  1 10  1  0  0  0  0
 12 29  2  0  0  0  0
  3  7  1  0  0  0  0
 13 30  1  0  0  0  0
  1  2  1  0  0  0  0
 30 31  1  0  0  0  0
 14 15  1  0  0  0  0
 31 32  1  0  0  0  0
  6  4  1  0  0  0  0
 32 33  1  0  0  0  0
M  END
> <From> 
www.bindingDB.org

> <BindingDB Reactant_set_id>
50904808

> <Ligand InChI>
InChI=1S/C23H25N7O3/c1-4-24-23(32)28-19-14-30-18(22-25-12-15(2)13-26-22)9-17(10-20(30)27-19)16-5-6-29(7-8-33-3)21(31)11-16/h5-6,9-14H,4,7-8H2,1-3H3,(H2,24,28,32)

> <Ligand InChI Key>
XRJJMGUVFQTPKV-UHFFFAOYSA-N

> <BindingDB MonomerID>
50378422

> <BindingDB Ligand Name>
CHEMBL583438

> <Target Name Assigned by Curator or DataSource>
DNA gyrase subunit B

> <Target Source Organism According to Curator or DataSource>
Streptococcus pneumoniae

> <Ki (nM)>


> <IC50 (nM)>
 401

> <Kd (nM)>


> <EC50 (nM)>


> <kon (M-1-s-1)>


> <koff (s-1)>


> <pH>


> <Temp C>


> <Curation/DataSource>
ChEMBL

> <Article DOI>
10.1016/j.bmcl.2009.07.141

> <PMID>
19683922

> <PubChem AID>


> <Patent Number>


> <Authors>
Starr, JT; Sciotti, RJ; Hanna, DL; Huband, MD; Mullins, LM; Cai, H; Gage, JW; Lockard, M; Rauckhorst, MR; Owen, RM; Lall, MS; Tomilo, M; Chen, H; McCurdy, SP; Barbachyn, MR

> <Institution>
Pfizer Inc.

> <Link to Ligand in BindingDB>
http://www.bindingdb.org/bind/chemsearch/marvin/MolStructure.jsp?monomerid=50378422

> <Link to Ligand-Target Pair in BindingDB>
http://www.bindingdb.org/jsp/dbsearch/PrimarySearch_ki.jsp?energyterm=kJ/mole&tag=pol&polymerid=50005944&target=DNA+gyrase+subunit+B&column=ki&startPg=0&Increment=50&submit=Search

> <Link to Ligand-Target Pair in BindingDB>
http://www.bindingdb.org/jsp/dbsearch/PrimarySearch_ki.jsp?energyterm=kJ/mole&tag=r21&monomerid=50378422&enzyme=DNA+gyrase+subunit+B&column=ki&startPg=0&Increment=50&submit=Search

> <Ligand HET ID in PDB>


> <PDB ID(s) for Ligand-Target Complex>


> <PubChem CID>
45484817

> <PubChem SID>
160857505

> <ChEBI ID of Ligand>


> <ChEMBL ID of Ligand>
CHEMBL583438

> <DrugBank ID of Ligand>


> <IUPHAR_GRAC ID of Ligand>


> <KEGG ID of Ligand>


> <ZINC ID of Ligand>
ZINC45321210

> <Number of Protein Chains in Target (>1 implies a multichain complex)>
1

> <BindingDB Target Chain Sequence>
MTEEIKNLQAQDYDASQIQVLEGLEAVRMRPGMYIGSTSKEGLHHLVWEIVDNSIDEALAGFASHIQVFIEPDDSITVVDDGRGIPVDIQEKTGRPAVETVFTVLHAGGKFGGGGYKVSGGLHGVGSSVVNALSTQLDVHVHKNGKIHYQEYRRGHVVADLEIVGDTDKTGTTVHFTPDPKIFTETTIFDFDKLNKRIQELAFLNRGLQISITDKRQGLEQTKHYHYEGGIASYVEYINENKDVIFDTPIYTDGEMDDITVEVAMQYTTGYHENVMSFANNIHTHEGGTHEQGFRTALTRVINDYARKNKLLKDNEDNLTGEDVREGLTAVISVKHPNPQFEGQTKTKLGNSEVVKITNRLFSEAFSDFLMENPQIAKRIVEKGILAAKARVAAKRAREVTRKKSGLEISNLPGKLADCSSNNPAETELFIVEGDSAGGSAKSGRNREFQAILPIRGKILNVEKASMDKILANEEIRSLFTAMGTGFGAEFDVSKARYQKLVLMTDADVDGAHIRTLLLTLIYRYMKPILEAGYVYIAQPPIYGVKVGSEIKEYIQPGADQEIKLQEALARYSEGRTKPTIQRYKGLGEMDDHQLWETTMDPEHRLMARVSVDDAAEADKIFDMLMGDRVEPRREFIEENAVYSTLDV

> <PDB ID(s) of Target Chain>
4Z2C,4Z2D,4Z2E

> <UniProt (SwissProt) Recommended Name of Target Chain>
DNA gyrase subunit B

> <UniProt (SwissProt) Entry Name of Target Chain>
GYRB_STRPN

> <UniProt (SwissProt) Primary ID of Target Chain>
P0A4L9

> <UniProt (SwissProt) Secondary ID(s) of Target Chain>
P48373

> <UniProt (SwissProt) Alternative ID(s) of Target Chain>


> <UniProt (TrEMBL) Submitted Name of Target Chain>


> <UniProt (TrEMBL) Entry Name of Target Chain>


> <UniProt (TrEMBL) Primary ID of Target Chain>


> <UniProt (TrEMBL) Secondary ID(s) of Target Chain>


> <UniProt (TrEMBL) Alternative ID(s) of Target Chain>


$$$$

  SciTegic12211701512D

 27 29  0  0  0  0            999 V2000
    9.8494  -11.1393    0.0000 O   0  0
    9.4408  -10.4302    0.0000 C   0  0
    8.6236  -10.4302    0.0000 C   0  0
    8.1435   -9.7711    0.0000 C   0  0
    7.3663  -10.0216    0.0000 C   0  0
    6.7071   -9.5415    0.0000 Cl  0  0
    7.3663  -10.8388    0.0000 C   0  0
    6.7071  -11.3190    0.0000 Cl  0  0
    8.1435  -11.0935    0.0000 N   0  0
    9.8494   -9.7211    0.0000 N   0  0
   10.6666   -9.7211    0.0000 C   0  0
   11.1467  -10.3844    0.0000 N   0  0
   11.9240  -10.1297    0.0000 C   0  0
   12.6331  -10.5383    0.0000 C   0  0
   13.3422  -10.1297    0.0000 C   0  0
   13.3422   -9.3125    0.0000 C   0  0
   14.0471   -8.9040    0.0000 N   0  0
   14.7562   -9.3125    0.0000 C   0  0
   14.7562  -10.1297    0.0000 C   0  0
   15.4612  -10.5383    0.0000 C   0  0
   16.1703  -10.1297    0.0000 C   0  0
   16.8793  -10.5383    0.0000 O   0  0
   16.1703   -9.3125    0.0000 O   0  0
   15.4612   -8.9040    0.0000 O   0  0
   12.6331   -8.9040    0.0000 C   0  0
   11.9240   -9.3125    0.0000 C   0  0
   11.1467   -9.0620    0.0000 S   0  0
  1  2  2  0
  2  3  1  0
  3  4  2  0
  4  5  1  0
  5  6  1  0
  5  7  2  0
  7  8  1  0
  7  9  1  0
  3  9  1  0
  2 10  1  0
 10 11  1  0
 11 12  2  0
 12 13  1  0
 13 14  2  0
 14 15  1  0
 15 16  2  0
 16 17  1  0
 17 18  1  0
 18 19  1  0
 19 20  1  0
 20 21  1  0
 21 22  1  0
 21 23  2  0
 18 24  2  0
 16 25  1  0
 25 26  2  0
 13 26  1  0
 26 27  1  0
 11 27  1  0
M  END
> <From> 
www.bindingDB.org

> <BindingDB Reactant_set_id>
50524117

> <Ligand InChI>
InChI=1S/C16H12Cl2N4O4S/c17-8-6-10(20-14(8)18)15(26)22-16-21-9-2-1-7(5-11(9)27-16)19-12(23)3-4-13(24)25/h1-2,5-6,20H,3-4H2,(H,19,23)(H,24,25)(H,21,22,26)

> <Ligand InChI Key>
OWOMROGMNUQIOW-UHFFFAOYSA-N

> <BindingDB MonomerID>
50198317

> <BindingDB Ligand Name>
CHEMBL3905948

> <Target Name Assigned by Curator or DataSource>
DNA Gyrase Subunit B

> <Target Source Organism According to Curator or DataSource>
Escherichia coli

> <Ki (nM)>


> <IC50 (nM)>
 430

> <Kd (nM)>


> <EC50 (nM)>


> <kon (M-1-s-1)>


> <koff (s-1)>


> <pH>


> <Temp C>


> <Curation/DataSource>
ChEMBL

> <Article DOI>
10.1021/acs.jmedchem.6b00864

> <PMID>
27541007

> <PubChem AID>


> <Patent Number>


> <Authors>
Gjorgjieva, M; Tomaic, T; Barancokova, M; Katsamakas, S; Ila, J; Tammela, P; Peterlin Maic, L; Kikelj, D

> <Institution>
University of Ljubljana

> <Link to Ligand in BindingDB>
http://www.bindingdb.org/bind/chemsearch/marvin/MolStructure.jsp?monomerid=50198317

> <Link to Ligand-Target Pair in BindingDB>
http://www.bindingdb.org/jsp/dbsearch/PrimarySearch_ki.jsp?energyterm=kJ/mole&tag=pol&polymerid=2630&target=DNA+Gyrase+Subunit+B&column=ki&startPg=0&Increment=50&submit=Search

> <Link to Ligand-Target Pair in BindingDB>
http://www.bindingdb.org/jsp/dbsearch/PrimarySearch_ki.jsp?energyterm=kJ/mole&tag=r21&monomerid=50198317&enzyme=DNA+Gyrase+Subunit+B&column=ki&startPg=0&Increment=50&submit=Search

> <Ligand HET ID in PDB>


> <PDB ID(s) for Ligand-Target Complex>


> <PubChem CID>
134135948

> <PubChem SID>
375978201

> <ChEBI ID of Ligand>


> <ChEMBL ID of Ligand>


> <DrugBank ID of Ligand>


> <IUPHAR_GRAC ID of Ligand>


> <KEGG ID of Ligand>


> <ZINC ID of Ligand>


> <Number of Protein Chains in Target (>1 implies a multichain complex)>
1

> <BindingDB Target Chain Sequence>
MSNSYDSSSIKVLKGLDAVRKRPGMYIGDTDDGTGLHHMVFEVVDNAIDEALAGHCKEII
VTIHADNSVSVQDDGRGIPTGIHPEEGVSAAEVIMTVLHAGGKFDDNSYKVSGGLHGVGV
SVVNALSQKLELVIQREGKIHRQIYEHGVPQAPLAVTGETEKTGTMVRFWPSLETFTNVT
EFEYEILAKRLRELSFLNSGVSIRLRDKRDGKEDHFHYEGGIKAFVEYLNKNKTPIHPNI
FYFSTEKDGIGVEVALQWNDGFQENIYCFTNNIPQRDGGTHLAGFRAAMTRTLNAYMDKE
GYSKKAKVSATGDDAREGLIAVVSVKVPDPKFSSQTKDKLVSSEVKSAVEQQMNELLAEY
LLENPTDAKIVVGKIIDAARAREAARRAREMTRRKGALDLAGLPGKLADCQERDPALSEL
YLVEGDSAGGSAKQGRNRKNQAILPLKGKILNVEKARFDKMLSSQEVATLITALGCGIGR
DEYNPDKLRYHSIIIMTDADVDGSHIRTLLLTFFYRQMPEIVERGHVYIAQPPLYKVKKG
KQEQYIKDDEAMDQYQISIALDGATLHTNASAPALAGEALEKLVSEYNATQKMINRMERR
YPKAMLKELIYQPTLTEADLSDEQTVTRWVNALVSELNDKEQHGSQWKFDVHTNAEQNLF
EPIVRVRTHGVDTDYPLDHEFITGGEYRRICTLGEKLRGLLEEDAFIERGERRQPVASFE
QALDWLVKESRRGLSIQRYKGLGEMNPEQLWETTMDPESRRMLRVTVKDAIAADQLFTTL
MGDAVEPRRAFIEENALKAANIDI

> <PDB ID(s) of Target Chain>
1KZN,3G7E,3NUH,4DUH,4HYP,4KFG,4PRV,4PRX,4PU9,4WUB,4WUC,4WUD,4XTJ,4ZVI,5L3J,5MMN,5MMO,5MMP,5Z4H,5Z4O,5Z9B,5Z9E,5Z9F,5Z9L,5Z9M,5Z9N,5Z9Q,6ENG,6F86,6F8J,6F94,6F96

> <UniProt (SwissProt) Recommended Name of Target Chain>
DNA gyrase subunit B

> <UniProt (SwissProt) Entry Name of Target Chain>
GYRB_ECOLI

> <UniProt (SwissProt) Primary ID of Target Chain>
P0AES6

> <UniProt (SwissProt) Secondary ID(s) of Target Chain>
O08438,P06982,Q2M811

> <UniProt (SwissProt) Alternative ID(s) of Target Chain>


> <UniProt (TrEMBL) Submitted Name of Target Chain>


> <UniProt (TrEMBL) Entry Name of Target Chain>


> <UniProt (TrEMBL) Primary ID of Target Chain>


> <UniProt (TrEMBL) Secondary ID(s) of Target Chain>


> <UniProt (TrEMBL) Alternative ID(s) of Target Chain>


$$$$

  Mrv0541 11241408262D          

 31 34  0  0  0  0            999 V2000
    1.9652   -3.0625    0.0000 C   0  0  0  0  0  0  0  0  0  0  0  0
    1.9641   -3.8898    0.0000 C   0  0  0  0  0  0  0  0  0  0  0  0
    2.6789   -4.3027    0.0000 C   0  0  0  0  0  0  0  0  0  0  0  0
    2.6771   -2.6497    0.0000 C   0  0  0  0  0  0  0  0  0  0  0  0
    4.1838   -2.8048    0.0000 N   0  0  0  0  0  0  0  0  0  0  0  0
    3.3925   -3.0588    0.0000 C   0  0  0  0  0  0  0  0  0  0  0  0
    3.3907   -3.8906    0.0000 N   0  0  0  0  0  0  0  0  0  0  0  0
    4.1818   -4.1480    0.0000 C   0  0  0  0  0  0  0  0  0  0  0  0
    4.6698   -3.4744    0.0000 C   0  0  0  0  0  0  0  0  0  0  0  0
    1.2528   -2.6503    0.0000 C   0  0  0  0  0  0  0  0  0  0  0  0
    1.2539   -1.8242    0.0000 C   0  0  0  0  0  0  0  0  0  0  0  0
    0.5402   -1.4119    0.0000 N   0  0  0  0  0  0  0  0  0  0  0  0
   -0.1752   -1.8247    0.0000 C   0  0  0  0  0  0  0  0  0  0  0  0
   -0.1723   -2.6539    0.0000 C   0  0  0  0  0  0  0  0  0  0  0  0
    0.5420   -3.0624    0.0000 C   0  0  0  0  0  0  0  0  0  0  0  0
    2.6809   -5.1249    0.0000 C   0  0  0  0  0  0  0  0  0  0  0  0
    1.9650   -5.5372    0.0000 N   0  0  0  0  0  0  0  0  0  0  0  0
    1.9651   -6.3615    0.0000 C   0  0  0  0  0  0  0  0  0  0  0  0
    2.6804   -6.7744    0.0000 C   0  0  0  0  0  0  0  0  0  0  0  0
    3.3970   -6.3571    0.0000 C   0  0  0  0  0  0  0  0  0  0  0  0
    3.3933   -5.5342    0.0000 N   0  0  0  0  0  0  0  0  0  0  0  0
    5.4948   -3.4741    0.0000 N   0  0  0  0  0  0  0  0  0  0  0  0
    5.9070   -2.7595    0.0000 C   0  0  0  0  0  0  0  0  0  0  0  0
    6.7320   -2.7591    0.0000 N   0  0  0  0  0  0  0  0  0  0  0  0
    5.4943   -2.0452    0.0000 O   0  0  0  0  0  0  0  0  0  0  0  0
    7.1448   -3.4734    0.0000 C   0  0  0  0  0  0  0  0  0  0  0  0
    7.9698   -3.4731    0.0000 C   0  0  0  0  0  0  0  0  0  0  0  0
    2.6819   -7.5994    0.0000 S   0  0  0  0  0  0  0  0  0  0  0  0
    1.8548   -7.6082    0.0000 O   0  0  0  0  0  0  0  0  0  0  0  0
    3.5082   -7.6111    0.0000 O   0  0  0  0  0  0  0  0  0  0  0  0
    2.6750   -8.4208    0.0000 C   0  0  0  0  0  0  0  0  0  0  0  0
 15 10  2  0  0  0  0
  1 10  1  0  0  0  0
  6  4  1  0  0  0  0
  5  6  2  0  0  0  0
 16 17  2  0  0  0  0
  7  8  1  0  0  0  0
 17 18  1  0  0  0  0
  8  9  2  0  0  0  0
 18 19  2  0  0  0  0
  9  5  1  0  0  0  0
 19 20  1  0  0  0  0
  4  1  2  0  0  0  0
 20 21  2  0  0  0  0
 21 16  1  0  0  0  0
  3 16  1  0  0  0  0
  6  7  1  0  0  0  0
  9 22  1  0  0  0  0
 10 11  1  0  0  0  0
 22 23  1  0  0  0  0
 23 24  1  0  0  0  0
 11 12  2  0  0  0  0
 23 25  2  0  0  0  0
  2  3  2  0  0  0  0
 24 26  1  0  0  0  0
 12 13  1  0  0  0  0
 26 27  1  0  0  0  0
  3  7  1  0  0  0  0
 19 28  1  0  0  0  0
 13 14  2  0  0  0  0
 28 29  2  0  0  0  0
  1  2  1  0  0  0  0
 28 30  2  0  0  0  0
 14 15  1  0  0  0  0
 28 31  1  0  0  0  0
M  END
> <From> 
www.bindingDB.org

> <BindingDB Reactant_set_id>
50904822

> <Ligand InChI>
InChI=1S/C20H19N7O3S/c1-3-22-20(28)26-17-12-27-16(19-23-10-15(11-24-19)31(2,29)30)7-14(8-18(27)25-17)13-5-4-6-21-9-13/h4-12H,3H2,1-2H3,(H2,22,26,28)

> <Ligand InChI Key>
DXKASNXPOCRCMH-UHFFFAOYSA-N

> <BindingDB MonomerID>
50378431

> <BindingDB Ligand Name>
CHEMBL568222

> <Target Name Assigned by Curator or DataSource>
DNA gyrase subunit B

> <Target Source Organism According to Curator or DataSource>
Streptococcus pneumoniae

> <Ki (nM)>


> <IC50 (nM)>
 433

> <Kd (nM)>


> <EC50 (nM)>


> <kon (M-1-s-1)>


> <koff (s-1)>


> <pH>


> <Temp C>


> <Curation/DataSource>
ChEMBL

> <Article DOI>
10.1016/j.bmcl.2009.07.141

> <PMID>
19683922

> <PubChem AID>


> <Patent Number>


> <Authors>
Starr, JT; Sciotti, RJ; Hanna, DL; Huband, MD; Mullins, LM; Cai, H; Gage, JW; Lockard, M; Rauckhorst, MR; Owen, RM; Lall, MS; Tomilo, M; Chen, H; McCurdy, SP; Barbachyn, MR

> <Institution>
Pfizer Inc.

> <Link to Ligand in BindingDB>
http://www.bindingdb.org/bind/chemsearch/marvin/MolStructure.jsp?monomerid=50378431

> <Link to Ligand-Target Pair in BindingDB>
http://www.bindingdb.org/jsp/dbsearch/PrimarySearch_ki.jsp?energyterm=kJ/mole&tag=pol&polymerid=50005944&target=DNA+gyrase+subunit+B&column=ki&startPg=0&Increment=50&submit=Search

> <Link to Ligand-Target Pair in BindingDB>
http://www.bindingdb.org/jsp/dbsearch/PrimarySearch_ki.jsp?energyterm=kJ/mole&tag=r21&monomerid=50378431&enzyme=DNA+gyrase+subunit+B&column=ki&startPg=0&Increment=50&submit=Search

> <Ligand HET ID in PDB>


> <PDB ID(s) for Ligand-Target Complex>


> <PubChem CID>
45484815

> <PubChem SID>
160857514

> <ChEBI ID of Ligand>


> <ChEMBL ID of Ligand>
CHEMBL568222

> <DrugBank ID of Ligand>


> <IUPHAR_GRAC ID of Ligand>


> <KEGG ID of Ligand>


> <ZINC ID of Ligand>
ZINC45254954

> <Number of Protein Chains in Target (>1 implies a multichain complex)>
1

> <BindingDB Target Chain Sequence>
MTEEIKNLQAQDYDASQIQVLEGLEAVRMRPGMYIGSTSKEGLHHLVWEIVDNSIDEALAGFASHIQVFIEPDDSITVVDDGRGIPVDIQEKTGRPAVETVFTVLHAGGKFGGGGYKVSGGLHGVGSSVVNALSTQLDVHVHKNGKIHYQEYRRGHVVADLEIVGDTDKTGTTVHFTPDPKIFTETTIFDFDKLNKRIQELAFLNRGLQISITDKRQGLEQTKHYHYEGGIASYVEYINENKDVIFDTPIYTDGEMDDITVEVAMQYTTGYHENVMSFANNIHTHEGGTHEQGFRTALTRVINDYARKNKLLKDNEDNLTGEDVREGLTAVISVKHPNPQFEGQTKTKLGNSEVVKITNRLFSEAFSDFLMENPQIAKRIVEKGILAAKARVAAKRAREVTRKKSGLEISNLPGKLADCSSNNPAETELFIVEGDSAGGSAKSGRNREFQAILPIRGKILNVEKASMDKILANEEIRSLFTAMGTGFGAEFDVSKARYQKLVLMTDADVDGAHIRTLLLTLIYRYMKPILEAGYVYIAQPPIYGVKVGSEIKEYIQPGADQEIKLQEALARYSEGRTKPTIQRYKGLGEMDDHQLWETTMDPEHRLMARVSVDDAAEADKIFDMLMGDRVEPRREFIEENAVYSTLDV

> <PDB ID(s) of Target Chain>
4Z2C,4Z2D,4Z2E

> <UniProt (SwissProt) Recommended Name of Target Chain>
DNA gyrase subunit B

> <UniProt (SwissProt) Entry Name of Target Chain>
GYRB_STRPN

> <UniProt (SwissProt) Primary ID of Target Chain>
P0A4L9

> <UniProt (SwissProt) Secondary ID(s) of Target Chain>
P48373

> <UniProt (SwissProt) Alternative ID(s) of Target Chain>


> <UniProt (TrEMBL) Submitted Name of Target Chain>


> <UniProt (TrEMBL) Entry Name of Target Chain>


> <UniProt (TrEMBL) Primary ID of Target Chain>


> <UniProt (TrEMBL) Secondary ID(s) of Target Chain>


> <UniProt (TrEMBL) Alternative ID(s) of Target Chain>


$$$$

  Mrv0541 11231413392D          

 46 50  0  0  0  0            999 V2000
   11.9047    2.2780    0.0000 C   0  0  0  0  0  0  0  0  0  0  0  0
   11.1788    2.6794    0.0000 C   0  0  1  0  0  0  0  0  0  0  0  0
   10.4722    2.2540    0.0000 C   0  0  2  0  0  0  0  0  0  0  0  0
   10.4851    1.4253    0.0000 C   0  0  2  0  0  0  0  0  0  0  0  0
   11.2109    1.0237    0.0000 C   0  0  1  0  0  0  0  0  0  0  0  0
   11.9239    1.4510    0.0000 O   0  0  0  0  0  0  0  0  0  0  0  0
   11.2252    0.1990    0.0000 O   0  0  0  0  0  0  0  0  0  0  0  0
   11.9449   -0.2123    0.0000 C   0  0  0  0  0  0  0  0  0  0  0  0
   11.9441   -1.0366    0.0000 C   0  0  0  0  0  0  0  0  0  0  0  0
   12.6596    0.2019    0.0000 C   0  0  0  0  0  0  0  0  0  0  0  0
   13.3740   -0.2157    0.0000 C   0  0  0  0  0  0  0  0  0  0  0  0
   13.3721   -1.0402    0.0000 C   0  0  0  0  0  0  0  0  0  0  0  0
   12.6570   -1.4518    0.0000 C   0  0  0  0  0  0  0  0  0  0  0  0
   12.6558   -2.2723    0.0000 O   0  0  0  0  0  0  0  0  0  0  0  0
   13.3680   -2.6876    0.0000 C   0  0  0  0  0  0  0  0  0  0  0  0
   14.0832   -2.2761    0.0000 C   0  0  0  0  0  0  0  0  0  0  0  0
   14.0861   -1.4494    0.0000 C   0  0  0  0  0  0  0  0  0  0  0  0
   14.8005   -1.0369    0.0000 O   0  0  0  0  0  0  0  0  0  0  0  0
   13.3656   -3.5124    0.0000 O   0  0  0  0  0  0  0  0  0  0  0  0
   14.7965   -2.6903    0.0000 N   0  0  0  0  0  0  0  0  0  0  0  0
   14.7944   -3.5152    0.0000 C   0  0  0  0  0  0  0  0  0  0  0  0
   14.0791   -3.9259    0.0000 O   0  0  0  0  0  0  0  0  0  0  0  0
   15.5078   -3.9294    0.0000 C   0  0  0  0  0  0  0  0  0  0  0  0
   15.5028   -4.7535    0.0000 C   0  0  0  0  0  0  0  0  0  0  0  0
   16.2153   -5.1676    0.0000 C   0  0  0  0  0  0  0  0  0  0  0  0
   16.9317   -4.7569    0.0000 C   0  0  0  0  0  0  0  0  0  0  0  0
   16.9311   -3.9277    0.0000 C   0  0  0  0  0  0  0  0  0  0  0  0
   16.2180   -3.5174    0.0000 C   0  0  0  0  0  0  0  0  0  0  0  0
   17.6456   -5.1702    0.0000 O   0  0  0  0  0  0  0  0  0  0  0  0
   12.7321    2.2969    0.0000 C   0  0  0  0  0  0  0  0  0  0  0  0
   11.8938    3.1010    0.0000 C   0  0  0  0  0  0  0  0  0  0  0  0
   11.1638    3.5042    0.0000 O   0  0  0  0  0  0  0  0  0  0  0  0
   11.8704    3.9297    0.0000 C   0  0  0  0  0  0  0  0  0  0  0  0
    9.7509    2.6542    0.0000 O   0  0  0  0  0  0  0  0  0  0  0  0
    9.7779    1.0007    0.0000 O   0  0  0  0  0  0  0  0  0  0  0  0
   11.2289   -1.4475    0.0000 Cl  0  0  0  0  0  0  0  0  0  0  0  0
    9.0566    1.4011    0.0000 C   0  0  0  0  0  0  0  0  0  0  0  0
    8.3481    0.9756    0.0000 C   0  0  0  0  0  0  0  0  0  0  0  0
    9.0426    2.2257    0.0000 O   0  0  0  0  0  0  0  0  0  0  0  0
    7.7036    1.4833    0.0000 N   0  0  0  0  0  0  0  0  0  0  0  0
    7.0180    1.0246    0.0000 C   0  0  0  0  0  0  0  0  0  0  0  0
    7.2426    0.2307    0.0000 C   0  0  0  0  0  0  0  0  0  0  0  0
    8.0668    0.1992    0.0000 C   0  0  0  0  0  0  0  0  0  0  0  0
    6.3012    1.4389    0.0000 C   0  0  0  0  0  0  0  0  0  0  0  0
   17.6451   -3.5146    0.0000 O   0  0  0  0  0  0  0  0  0  0  0  0
   18.3599   -3.9263    0.0000 C   0  0  0  0  0  0  0  0  0  0  0  0
 21 22  2  0  0  0  0
 11 10  1  0  0  0  0
 21 23  1  0  0  0  0
 11 12  2  0  0  0  0
 23 24  2  0  0  0  0
  3  4  1  0  0  0  0
 24 25  1  0  0  0  0
 12 13  1  0  0  0  0
 25 26  2  0  0  0  0
  4  5  1  0  0  0  0
 26 27  1  0  0  0  0
  5  6  1  0  0  0  0
 27 28  2  0  0  0  0
 28 23  1  0  0  0  0
 26 29  1  0  0  0  0
  5  7  1  1  0  0  0
  1 30  1  0  0  0  0
  2  1  1  0  0  0  0
  1 31  1  0  0  0  0
  7  8  1  0  0  0  0
  2 32  1  1  0  0  0
 12 17  1  0  0  0  0
 32 33  1  0  0  0  0
 13 14  1  0  0  0  0
  3 34  1  6  0  0  0
 14 15  1  0  0  0  0
  4 35  1  6  0  0  0
 15 16  1  0  0  0  0
  9 36  1  0  0  0  0
 16 17  2  0  0  0  0
 35 37  1  0  0  0  0
  8  9  1  0  0  0  0
 37 38  1  0  0  0  0
 17 18  1  0  0  0  0
 37 39  2  0  0  0  0
 38 40  1  0  0  0  0
  1  6  1  0  0  0  0
 15 19  2  0  0  0  0
  3  2  1  0  0  0  0
 16 20  1  0  0  0  0
 40 41  1  0  0  0  0
 41 42  2  0  0  0  0
 42 43  1  0  0  0  0
 43 38  2  0  0  0  0
  8 10  2  0  0  0  0
 41 44  1  0  0  0  0
 20 21  1  0  0  0  0
 27 45  1  0  0  0  0
  9 13  2  0  0  0  0
 45 46  1  0  0  0  0
M  END
> <From> 
www.bindingDB.org

> <BindingDB Reactant_set_id>
50607659

> <Ligand InChI>
InChI=1S/C31H31ClN2O12/c1-13-6-9-16(33-13)28(39)45-25-23(37)26(42-5)31(2,3)46-30(25)43-18-11-8-15-22(36)21(29(40)44-24(15)20(18)32)34-27(38)14-7-10-17(35)19(12-14)41-4/h6-12,23,25-26,30,33,35-37H,1-5H3,(H,34,38)/t23-,25+,26+,30+/m0/s1

> <Ligand InChI Key>
AKYRQFMQZJFLAE-AUHTVUCRSA-N

> <BindingDB MonomerID>
50330293

> <BindingDB Ligand Name>
(2S,3R,4R,5R)-2-(8-chloro-4-hydroxy-3-(4-hydroxy-3-methoxybenzamido)-2-oxo-2H-chromen-7-yloxy)-4-hydroxy-5-methoxy-6,6-dimethyltetrahydro-2H-pyran-3-yl 5-methyl-1H-pyrrole-2-carboxylate::CHEMBL1275899

> <Target Name Assigned by Curator or DataSource>
DNA Gyrase Subunit B

> <Target Source Organism According to Curator or DataSource>
Escherichia coli

> <Ki (nM)>


> <IC50 (nM)>
 460

> <Kd (nM)>


> <EC50 (nM)>


> <kon (M-1-s-1)>


> <koff (s-1)>


> <pH>


> <Temp C>


> <Curation/DataSource>
ChEMBL

> <Article DOI>
10.1128/AAC.01235-07

> <PMID>
18347114

> <PubChem AID>


> <Patent Number>


> <Authors>
Anderle, C; Stieger, M; Burrell, M; Reinelt, S; Maxwell, A; Page, M; Heide, L

> <Institution>
Universit&#228;t T&#252;bingen

> <Link to Ligand in BindingDB>
http://www.bindingdb.org/bind/chemsearch/marvin/MolStructure.jsp?monomerid=50330293

> <Link to Ligand-Target Pair in BindingDB>
http://www.bindingdb.org/jsp/dbsearch/PrimarySearch_ki.jsp?energyterm=kJ/mole&tag=pol&polymerid=2630&target=DNA+Gyrase+Subunit+B&column=ki&startPg=0&Increment=50&submit=Search

> <Link to Ligand-Target Pair in BindingDB>
http://www.bindingdb.org/jsp/dbsearch/PrimarySearch_ki.jsp?energyterm=kJ/mole&tag=r21&monomerid=50330293&enzyme=DNA+Gyrase+Subunit+B&column=ki&startPg=0&Increment=50&submit=Search

> <Ligand HET ID in PDB>


> <PDB ID(s) for Ligand-Target Complex>


> <PubChem CID>
54713406

> <PubChem SID>
123109408

> <ChEBI ID of Ligand>


> <ChEMBL ID of Ligand>
CHEMBL1275899

> <DrugBank ID of Ligand>


> <IUPHAR_GRAC ID of Ligand>


> <KEGG ID of Ligand>


> <ZINC ID of Ligand>
ZINC72138082

> <Number of Protein Chains in Target (>1 implies a multichain complex)>
1

> <BindingDB Target Chain Sequence>
MSNSYDSSSIKVLKGLDAVRKRPGMYIGDTDDGTGLHHMVFEVVDNAIDEALAGHCKEII
VTIHADNSVSVQDDGRGIPTGIHPEEGVSAAEVIMTVLHAGGKFDDNSYKVSGGLHGVGV
SVVNALSQKLELVIQREGKIHRQIYEHGVPQAPLAVTGETEKTGTMVRFWPSLETFTNVT
EFEYEILAKRLRELSFLNSGVSIRLRDKRDGKEDHFHYEGGIKAFVEYLNKNKTPIHPNI
FYFSTEKDGIGVEVALQWNDGFQENIYCFTNNIPQRDGGTHLAGFRAAMTRTLNAYMDKE
GYSKKAKVSATGDDAREGLIAVVSVKVPDPKFSSQTKDKLVSSEVKSAVEQQMNELLAEY
LLENPTDAKIVVGKIIDAARAREAARRAREMTRRKGALDLAGLPGKLADCQERDPALSEL
YLVEGDSAGGSAKQGRNRKNQAILPLKGKILNVEKARFDKMLSSQEVATLITALGCGIGR
DEYNPDKLRYHSIIIMTDADVDGSHIRTLLLTFFYRQMPEIVERGHVYIAQPPLYKVKKG
KQEQYIKDDEAMDQYQISIALDGATLHTNASAPALAGEALEKLVSEYNATQKMINRMERR
YPKAMLKELIYQPTLTEADLSDEQTVTRWVNALVSELNDKEQHGSQWKFDVHTNAEQNLF
EPIVRVRTHGVDTDYPLDHEFITGGEYRRICTLGEKLRGLLEEDAFIERGERRQPVASFE
QALDWLVKESRRGLSIQRYKGLGEMNPEQLWETTMDPESRRMLRVTVKDAIAADQLFTTL
MGDAVEPRRAFIEENALKAANIDI

> <PDB ID(s) of Target Chain>
1KZN,3G7E,3NUH,4DUH,4HYP,4KFG,4PRV,4PRX,4PU9,4WUB,4WUC,4WUD,4XTJ,4ZVI,5L3J,5MMN,5MMO,5MMP,5Z4H,5Z4O,5Z9B,5Z9E,5Z9F,5Z9L,5Z9M,5Z9N,5Z9Q,6ENG,6F86,6F8J,6F94,6F96

> <UniProt (SwissProt) Recommended Name of Target Chain>
DNA gyrase subunit B

> <UniProt (SwissProt) Entry Name of Target Chain>
GYRB_ECOLI

> <UniProt (SwissProt) Primary ID of Target Chain>
P0AES6

> <UniProt (SwissProt) Secondary ID(s) of Target Chain>
O08438,P06982,Q2M811

> <UniProt (SwissProt) Alternative ID(s) of Target Chain>


> <UniProt (TrEMBL) Submitted Name of Target Chain>


> <UniProt (TrEMBL) Entry Name of Target Chain>


> <UniProt (TrEMBL) Primary ID of Target Chain>


> <UniProt (TrEMBL) Secondary ID(s) of Target Chain>


> <UniProt (TrEMBL) Alternative ID(s) of Target Chain>


$$$$

  Mrv0541 11231413392D          

 47 51  0  0  0  0            999 V2000
   -0.1752  -17.7043    0.0000 C   0  0  0  0  0  0  0  0  0  0  0  0
   -0.9011  -17.3027    0.0000 C   0  0  1  0  0  0  0  0  0  0  0  0
   -1.6078  -17.7283    0.0000 C   0  0  2  0  0  0  0  0  0  0  0  0
   -1.5949  -18.5571    0.0000 C   0  0  2  0  0  0  0  0  0  0  0  0
   -0.8691  -18.9586    0.0000 C   0  0  1  0  0  0  0  0  0  0  0  0
   -0.1561  -18.5314    0.0000 O   0  0  0  0  0  0  0  0  0  0  0  0
   -0.8548  -19.7835    0.0000 O   0  0  0  0  0  0  0  0  0  0  0  0
   -0.1351  -20.1947    0.0000 C   0  0  0  0  0  0  0  0  0  0  0  0
   -0.1357  -21.0193    0.0000 C   0  0  0  0  0  0  0  0  0  0  0  0
    0.5798  -19.7805    0.0000 C   0  0  0  0  0  0  0  0  0  0  0  0
    1.2943  -20.1983    0.0000 C   0  0  0  0  0  0  0  0  0  0  0  0
    1.2924  -21.0229    0.0000 C   0  0  0  0  0  0  0  0  0  0  0  0
    0.5771  -21.4344    0.0000 C   0  0  0  0  0  0  0  0  0  0  0  0
    0.5759  -22.2551    0.0000 O   0  0  0  0  0  0  0  0  0  0  0  0
    1.2883  -22.6704    0.0000 C   0  0  0  0  0  0  0  0  0  0  0  0
    2.0036  -22.2589    0.0000 C   0  0  0  0  0  0  0  0  0  0  0  0
    2.0064  -21.4320    0.0000 C   0  0  0  0  0  0  0  0  0  0  0  0
    2.7210  -21.0196    0.0000 O   0  0  0  0  0  0  0  0  0  0  0  0
    1.2860  -23.4954    0.0000 O   0  0  0  0  0  0  0  0  0  0  0  0
    2.7170  -22.6732    0.0000 N   0  0  0  0  0  0  0  0  0  0  0  0
    2.7149  -23.4981    0.0000 C   0  0  0  0  0  0  0  0  0  0  0  0
    1.9994  -23.9087    0.0000 O   0  0  0  0  0  0  0  0  0  0  0  0
    3.4283  -23.9124    0.0000 C   0  0  0  0  0  0  0  0  0  0  0  0
    3.4234  -24.7365    0.0000 C   0  0  0  0  0  0  0  0  0  0  0  0
    4.1359  -25.1507    0.0000 C   0  0  0  0  0  0  0  0  0  0  0  0
    4.8523  -24.7400    0.0000 C   0  0  0  0  0  0  0  0  0  0  0  0
    4.8518  -23.9107    0.0000 C   0  0  0  0  0  0  0  0  0  0  0  0
    4.1387  -23.5002    0.0000 C   0  0  0  0  0  0  0  0  0  0  0  0
    5.5663  -25.1532    0.0000 O   0  0  0  0  0  0  0  0  0  0  0  0
    5.5659  -23.4975    0.0000 C   0  0  0  0  0  0  0  0  0  0  0  0
    0.6523  -17.6854    0.0000 C   0  0  0  0  0  0  0  0  0  0  0  0
   -0.1860  -16.8812    0.0000 C   0  0  0  0  0  0  0  0  0  0  0  0
   -0.9162  -16.4780    0.0000 O   0  0  0  0  0  0  0  0  0  0  0  0
   -0.2094  -16.0524    0.0000 C   0  0  0  0  0  0  0  0  0  0  0  0
   -2.3292  -17.3279    0.0000 O   0  0  0  0  0  0  0  0  0  0  0  0
   -2.3023  -18.9817    0.0000 O   0  0  0  0  0  0  0  0  0  0  0  0
   -0.8511  -21.4301    0.0000 C   0  0  0  0  0  0  0  0  0  0  0  0
    6.2807  -23.9093    0.0000 C   0  0  0  0  0  0  0  0  0  0  0  0
    6.9947  -23.4960    0.0000 C   0  0  0  0  0  0  0  0  0  0  0  0
   -3.0237  -18.5813    0.0000 C   0  0  0  0  0  0  0  0  0  0  0  0
   -3.7321  -19.0069    0.0000 C   0  0  0  0  0  0  0  0  0  0  0  0
   -3.0376  -17.7565    0.0000 O   0  0  0  0  0  0  0  0  0  0  0  0
   -4.3767  -18.4989    0.0000 N   0  0  0  0  0  0  0  0  0  0  0  0
   -5.0623  -18.9578    0.0000 C   0  0  0  0  0  0  0  0  0  0  0  0
   -4.8378  -19.7517    0.0000 C   0  0  0  0  0  0  0  0  0  0  0  0
   -4.0134  -19.7834    0.0000 C   0  0  0  0  0  0  0  0  0  0  0  0
   -5.7794  -18.5434    0.0000 C   0  0  0  0  0  0  0  0  0  0  0  0
 11 10  1  0  0  0  0
 21 23  1  0  0  0  0
 11 12  2  0  0  0  0
 23 24  2  0  0  0  0
  3  4  1  0  0  0  0
 24 25  1  0  0  0  0
 12 13  1  0  0  0  0
 25 26  2  0  0  0  0
  4  5  1  0  0  0  0
 26 27  1  0  0  0  0
  5  6  1  0  0  0  0
 27 28  2  0  0  0  0
 28 23  1  0  0  0  0
 26 29  1  0  0  0  0
  5  7  1  1  0  0  0
 27 30  1  0  0  0  0
  2  1  1  0  0  0  0
  1 31  1  0  0  0  0
  7  8  1  0  0  0  0
  1 32  1  0  0  0  0
 12 17  1  0  0  0  0
  2 33  1  1  0  0  0
 13 14  1  0  0  0  0
 33 34  1  0  0  0  0
 14 15  1  0  0  0  0
  3 35  1  6  0  0  0
 15 16  1  0  0  0  0
  4 36  1  6  0  0  0
 16 17  2  0  0  0  0
  9 37  1  0  0  0  0
  8  9  1  0  0  0  0
 30 38  1  0  0  0  0
 17 18  1  0  0  0  0
 38 39  2  0  0  0  0
  1  6  1  0  0  0  0
 36 40  1  0  0  0  0
 15 19  2  0  0  0  0
 40 41  1  0  0  0  0
  3  2  1  0  0  0  0
 40 42  2  0  0  0  0
 41 43  1  0  0  0  0
 16 20  1  0  0  0  0
  8 10  2  0  0  0  0
 20 21  1  0  0  0  0
  9 13  2  0  0  0  0
 43 44  1  0  0  0  0
 44 45  2  0  0  0  0
 45 46  1  0  0  0  0
 46 41  2  0  0  0  0
 21 22  2  0  0  0  0
 44 47  1  0  0  0  0
M  END
> <From> 
www.bindingDB.org

> <BindingDB Reactant_set_id>
50607658

> <Ligand InChI>
InChI=1S/C34H36N2O11/c1-7-8-18-15-19(10-13-22(18)37)30(40)36-24-25(38)20-11-14-23(17(3)27(20)45-32(24)42)44-33-28(26(39)29(43-6)34(4,5)47-33)46-31(41)21-12-9-16(2)35-21/h7,9-15,26,28-29,33,35,37-39H,1,8H2,2-6H3,(H,36,40)/t26-,28+,29+,33+/m0/s1

> <Ligand InChI Key>
UGFUKEQRKJXIPK-DBPUXHPHSA-N

> <BindingDB MonomerID>
50330292

> <BindingDB Ligand Name>
(2R,3R,4R,5R)-2-(3-(3-allyl-4-hydroxybenzamido)-4-hydroxy-8-methyl-2-oxo-2H-chromen-7-yloxy)-4-hydroxy-5-methoxy-6,6-dimethyltetrahydro-2H-pyran-3-yl 5-methyl-1H-pyrrole-2-carboxylate::CHEMBL1275900

> <Target Name Assigned by Curator or DataSource>
DNA Gyrase Subunit B

> <Target Source Organism According to Curator or DataSource>
Escherichia coli

> <Ki (nM)>


> <IC50 (nM)>
 460

> <Kd (nM)>


> <EC50 (nM)>


> <kon (M-1-s-1)>


> <koff (s-1)>


> <pH>


> <Temp C>


> <Curation/DataSource>
ChEMBL

> <Article DOI>
10.1128/AAC.01235-07

> <PMID>
18347114

> <PubChem AID>


> <Patent Number>


> <Authors>
Anderle, C; Stieger, M; Burrell, M; Reinelt, S; Maxwell, A; Page, M; Heide, L

> <Institution>
Universit&#228;t T&#252;bingen

> <Link to Ligand in BindingDB>
http://www.bindingdb.org/bind/chemsearch/marvin/MolStructure.jsp?monomerid=50330292

> <Link to Ligand-Target Pair in BindingDB>
http://www.bindingdb.org/jsp/dbsearch/PrimarySearch_ki.jsp?energyterm=kJ/mole&tag=pol&polymerid=2630&target=DNA+Gyrase+Subunit+B&column=ki&startPg=0&Increment=50&submit=Search

> <Link to Ligand-Target Pair in BindingDB>
http://www.bindingdb.org/jsp/dbsearch/PrimarySearch_ki.jsp?energyterm=kJ/mole&tag=r21&monomerid=50330292&enzyme=DNA+Gyrase+Subunit+B&column=ki&startPg=0&Increment=50&submit=Search

> <Ligand HET ID in PDB>


> <PDB ID(s) for Ligand-Target Complex>


> <PubChem CID>
54732403

> <PubChem SID>
123109407

> <ChEBI ID of Ligand>


> <ChEMBL ID of Ligand>
CHEMBL1275900

> <DrugBank ID of Ligand>


> <IUPHAR_GRAC ID of Ligand>


> <KEGG ID of Ligand>


> <ZINC ID of Ligand>
ZINC72138095

> <Number of Protein Chains in Target (>1 implies a multichain complex)>
1

> <BindingDB Target Chain Sequence>
MSNSYDSSSIKVLKGLDAVRKRPGMYIGDTDDGTGLHHMVFEVVDNAIDEALAGHCKEII
VTIHADNSVSVQDDGRGIPTGIHPEEGVSAAEVIMTVLHAGGKFDDNSYKVSGGLHGVGV
SVVNALSQKLELVIQREGKIHRQIYEHGVPQAPLAVTGETEKTGTMVRFWPSLETFTNVT
EFEYEILAKRLRELSFLNSGVSIRLRDKRDGKEDHFHYEGGIKAFVEYLNKNKTPIHPNI
FYFSTEKDGIGVEVALQWNDGFQENIYCFTNNIPQRDGGTHLAGFRAAMTRTLNAYMDKE
GYSKKAKVSATGDDAREGLIAVVSVKVPDPKFSSQTKDKLVSSEVKSAVEQQMNELLAEY
LLENPTDAKIVVGKIIDAARAREAARRAREMTRRKGALDLAGLPGKLADCQERDPALSEL
YLVEGDSAGGSAKQGRNRKNQAILPLKGKILNVEKARFDKMLSSQEVATLITALGCGIGR
DEYNPDKLRYHSIIIMTDADVDGSHIRTLLLTFFYRQMPEIVERGHVYIAQPPLYKVKKG
KQEQYIKDDEAMDQYQISIALDGATLHTNASAPALAGEALEKLVSEYNATQKMINRMERR
YPKAMLKELIYQPTLTEADLSDEQTVTRWVNALVSELNDKEQHGSQWKFDVHTNAEQNLF
EPIVRVRTHGVDTDYPLDHEFITGGEYRRICTLGEKLRGLLEEDAFIERGERRQPVASFE
QALDWLVKESRRGLSIQRYKGLGEMNPEQLWETTMDPESRRMLRVTVKDAIAADQLFTTL
MGDAVEPRRAFIEENALKAANIDI

> <PDB ID(s) of Target Chain>
1KZN,3G7E,3NUH,4DUH,4HYP,4KFG,4PRV,4PRX,4PU9,4WUB,4WUC,4WUD,4XTJ,4ZVI,5L3J,5MMN,5MMO,5MMP,5Z4H,5Z4O,5Z9B,5Z9E,5Z9F,5Z9L,5Z9M,5Z9N,5Z9Q,6ENG,6F86,6F8J,6F94,6F96

> <UniProt (SwissProt) Recommended Name of Target Chain>
DNA gyrase subunit B

> <UniProt (SwissProt) Entry Name of Target Chain>
GYRB_ECOLI

> <UniProt (SwissProt) Primary ID of Target Chain>
P0AES6

> <UniProt (SwissProt) Secondary ID(s) of Target Chain>
O08438,P06982,Q2M811

> <UniProt (SwissProt) Alternative ID(s) of Target Chain>


> <UniProt (TrEMBL) Submitted Name of Target Chain>


> <UniProt (TrEMBL) Entry Name of Target Chain>


> <UniProt (TrEMBL) Primary ID of Target Chain>


> <UniProt (TrEMBL) Secondary ID(s) of Target Chain>


> <UniProt (TrEMBL) Alternative ID(s) of Target Chain>


$$$$

  SciTegic09291413392D

 27 30  0  0  0  0            999 V2000
    8.3934  -26.7444    0.0000 C   0  0
    8.3922  -27.5639    0.0000 C   0  0
    9.1003  -27.9729    0.0000 N   0  0
    9.0985  -26.3355    0.0000 C   0  0
    9.8071  -26.7408    0.0000 C   0  0
    9.8119  -27.5640    0.0000 C   0  0
   10.5963  -27.8138    0.0000 S   0  0
   11.0763  -27.1450    0.0000 C   0  0
   10.5885  -26.4819    0.0000 N   0  0
    7.6876  -26.3361    0.0000 C   0  0
    7.6888  -25.5179    0.0000 C   0  0
    6.9818  -25.1095    0.0000 N   0  0
    6.2732  -25.5183    0.0000 C   0  0
    6.2760  -26.3397    0.0000 N   0  0
   11.8935  -27.1401    0.0000 N   0  0
   12.2979  -26.4300    0.0000 C   0  0
   13.1151  -26.4252    0.0000 N   0  0
   11.8851  -25.7247    0.0000 O   0  0
   13.5195  -25.7151    0.0000 C   0  0
   14.3367  -25.7103    0.0000 C   0  0
    7.6842  -27.9720    0.0000 N   0  0
    6.9775  -26.7456    0.0000 C   0  0
    6.9805  -27.5584    0.0000 C   0  0
    6.2746  -27.9629    0.0000 C   0  0
    6.2697  -28.7805    0.0000 O   0  0
    6.9769  -29.1918    0.0000 C   0  0
    7.6890  -28.7856    0.0000 C   0  0
  1  2  2  0
  2  3  1  0
  3  6  2  0
  5  4  2  0
  4  1  1  0
  5  6  1  0
  6  7  1  0
  7  8  1  0
  8  9  2  0
  9  5  1  0
 10 11  2  0
 11 12  1  0
 12 13  2  0
 13 14  1  0
 14 22  2  0
 22 10  1  0
  1 10  1  0
  8 15  1  0
 15 16  1  0
 16 17  1  0
 16 18  2  0
 17 19  1  0
 19 20  1  0
  2 21  1  0
 21 23  1  0
 21 27  1  0
 23 24  1  0
 24 25  1  0
 25 26  1  0
 26 27  1  0
M  END
> <From> 
www.bindingDB.org

> <BindingDB Reactant_set_id>
50089918

> <Ligand InChI>
InChI=1S/C17H19N7O2S/c1-2-20-16(25)23-17-21-13-7-12(11-8-18-10-19-9-11)14(22-15(13)27-17)24-3-5-26-6-4-24/h7-10H,2-6H2,1H3,(H2,20,21,23,25)

> <Ligand InChI Key>
ZERPWIHGOJSFAO-UHFFFAOYSA-N

> <BindingDB MonomerID>
50010358

> <BindingDB Ligand Name>
CHEMBL3263602

> <Target Name Assigned by Curator or DataSource>
DNA gyrase subunit B

> <Target Source Organism According to Curator or DataSource>


> <Ki (nM)>


> <IC50 (nM)>
 500

> <Kd (nM)>


> <EC50 (nM)>


> <kon (M-1-s-1)>


> <koff (s-1)>


> <pH>


> <Temp C>


> <Curation/DataSource>
ChEMBL

> <Article DOI>
10.1021/jm401268f

> <PMID>
24088190

> <PubChem AID>


> <Patent Number>


> <Authors>
Ahuja, V; Ahuja, V; Basavarajappa, H; Basavarajappa, H; P, SH; P, SH; Boriack-Sjodin, PA; Boriack-Sjodin, PA; McKinney, D; McKinney, D; Ganguly, S; Ganguly, S; Kranthi, U; Kranthi, U; Gaonkar, S; Gaonkar, S; Jena, Lk; Jena, Lk; Ghorpade, SR; Ghorpade, SR; Ghosh, A; Ghosh, A; Barde, S; Barde, S; Kale, MG; Kale, MG; Koushik, K; Koushik, K; Kumar, CN; Kumar, CN; Manjunatha, MR; Manjunatha, MR; Ogg, D; Ogg, D; Panduga, V; Panduga, V; Ramya, VK; Ramya, VK; Reddy, J; Reddy, J; Kumar, KN; Kumar, KN; Giridhar, J; Giridhar, J; Rudrapatna, S; Rudrapatna, S; Sharma, S; Sharma, S; Tucker, JA; Tucker, JA; Vachaspati, P; Vachaspati, P; Waterson, D; Waterson, D; de Sousa, SM; de Sousa, SM

> <Institution>
AstraZeneca India Pvt. Ltd.

> <Link to Ligand in BindingDB>
http://www.bindingdb.org/bind/chemsearch/marvin/MolStructure.jsp?monomerid=50010358

> <Link to Ligand-Target Pair in BindingDB>
http://www.bindingdb.org/jsp/dbsearch/PrimarySearch_ki.jsp?energyterm=kJ/mole&tag=pol&polymerid=50006452&target=DNA+gyrase+subunit+B&column=ki&startPg=0&Increment=50&submit=Search

> <Link to Ligand-Target Pair in BindingDB>
http://www.bindingdb.org/jsp/dbsearch/PrimarySearch_ki.jsp?energyterm=kJ/mole&tag=r21&monomerid=50010358&enzyme=DNA+gyrase+subunit+B&column=ki&startPg=0&Increment=50&submit=Search

> <Ligand HET ID in PDB>


> <PDB ID(s) for Ligand-Target Complex>


> <PubChem CID>
72713303

> <PubChem SID>
103923172

> <ChEBI ID of Ligand>


> <ChEMBL ID of Ligand>
CHEMBL3263602

> <DrugBank ID of Ligand>


> <IUPHAR_GRAC ID of Ligand>


> <KEGG ID of Ligand>


> <ZINC ID of Ligand>
ZINC13446892

> <Number of Protein Chains in Target (>1 implies a multichain complex)>
1

> <BindingDB Target Chain Sequence>
MAAQKNNAPKEYGADSITILEGLEAVRKRPGMYIGSTGERGLHHLIWEVVDNAVDEAMAGFATRVDVKIHADGSVEVRDDGRGIPVEMHATGMPTIDVVMTQLHAGGKFDGETYAVSGGLHGVGVSVVNALSTRLEATVLRDGYEWFQYYDRSVPGKLKQGGETKETGTTIRFWADPEIFETTDYNFETVARRLQEMAFLNKGLTIELTDERVTAEEVVDDVVKDTAEAPKTADEKAAEATGPSKVKHRVFHYPGGLVDYVKHINRTKTPIQQSIIDFDGKGPGHEVEIAMQWNAGYSESVHTFANTINTHEGGTHEEGFRAALTSVVNRYAKDKKLLKDKDPNLTGDDIREGLAAVISVKVAEPQFEGQTKTKLGNTEVKSFVQKICNEQLQHWFEANPAEAKTVVNKAVSSAQARIAARKARELVRRKSATDIGGLPGKLADCRSTDPSKSELYVVEGDSAGGSAKSGRDSMFQAILPLRGKIINVEKARIDRVLKNTEVQSIITALGTGIHDEFDISKLRYHKIVLMADADVDGQHISTLLLTLLFRFMKPLVENGHIFLAQPPLYKLKWQRSEPEFAYSDRERDGLLEAGRAAGKKINVDDGIQRYKGLGEMDAKELWETTMDPSVRVLRQVTLDDAAAADELFSILMGEDVEARRSFITRNAKDVRFLDV

> <PDB ID(s) of Target Chain>
4BAE

> <UniProt (SwissProt) Recommended Name of Target Chain>
DNA gyrase subunit B

> <UniProt (SwissProt) Entry Name of Target Chain>
GYRB_MYCSM

> <UniProt (SwissProt) Primary ID of Target Chain>
P0C559

> <UniProt (SwissProt) Secondary ID(s) of Target Chain>
P48355,Q59555

> <UniProt (SwissProt) Alternative ID(s) of Target Chain>


> <UniProt (TrEMBL) Submitted Name of Target Chain>


> <UniProt (TrEMBL) Entry Name of Target Chain>


> <UniProt (TrEMBL) Primary ID of Target Chain>


> <UniProt (TrEMBL) Secondary ID(s) of Target Chain>


> <UniProt (TrEMBL) Alternative ID(s) of Target Chain>


$$$$

  SciTegic12211718412D

 25 27  0  0  0  0            999 V2000
    9.8752   -8.7930    0.0000 O   0  0
    9.4666   -8.0839    0.0000 C   0  0
    8.6494   -8.0839    0.0000 C   0  0
    8.1693   -7.4248    0.0000 C   0  0
    7.3920   -7.6753    0.0000 C   0  0
    6.7288   -7.1952    0.0000 Cl  0  0
    7.3920   -8.4925    0.0000 C   0  0
    6.7288   -8.9726    0.0000 Cl  0  0
    8.1693   -8.7430    0.0000 N   0  0
    9.8752   -7.3748    0.0000 N   0  0
   10.6924   -7.3748    0.0000 C   0  0
   11.1725   -8.0381    0.0000 N   0  0
   11.9498   -7.7834    0.0000 C   0  0
   12.6547   -8.1920    0.0000 C   0  0
   13.3638   -7.7834    0.0000 C   0  0
   13.3638   -6.9662    0.0000 C   0  0
   14.0729   -6.5576    0.0000 N   0  0
   14.7820   -6.9662    0.0000 C   0  0
   14.7820   -7.7834    0.0000 C   0  0
   14.0729   -8.1920    0.0000 O   0  0
   15.4869   -8.1920    0.0000 O   0  0
   15.4869   -6.5576    0.0000 O   0  0
   12.6547   -6.5576    0.0000 C   0  0
   11.9498   -6.9662    0.0000 C   0  0
   11.1725   -6.7157    0.0000 S   0  0
  1  2  2  0
  2  3  1  0
  3  4  2  0
  4  5  1  0
  5  6  1  0
  5  7  2  0
  7  8  1  0
  7  9  1  0
  3  9  1  0
  2 10  1  0
 10 11  1  0
 11 12  2  0
 12 13  1  0
 13 14  2  0
 14 15  1  0
 15 16  2  0
 16 17  1  0
 17 18  1  0
 18 19  1  0
 19 20  1  0
 19 21  2  0
 18 22  2  0
 16 23  1  0
 23 24  2  0
 13 24  1  0
 24 25  1  0
 11 25  1  0
M  END
> <From> 
www.bindingDB.org

> <BindingDB Reactant_set_id>
50524098

> <Ligand InChI>
InChI=1S/C14H8Cl2N4O4S/c15-6-4-8(18-10(6)16)11(21)20-14-19-7-2-1-5(3-9(7)25-14)17-12(22)13(23)24/h1-4,18H,(H,17,22)(H,23,24)(H,19,20,21)

> <Ligand InChI Key>
QJHQNFJZFZLWJA-UHFFFAOYSA-N

> <BindingDB MonomerID>
50198235

> <BindingDB Ligand Name>
CHEMBL3931016

> <Target Name Assigned by Curator or DataSource>
DNA gyrase

> <Target Source Organism According to Curator or DataSource>
Staphylococcus aureus

> <Ki (nM)>


> <IC50 (nM)>
 510

> <Kd (nM)>


> <EC50 (nM)>


> <kon (M-1-s-1)>


> <koff (s-1)>


> <pH>


> <Temp C>


> <Curation/DataSource>
ChEMBL

> <Article DOI>
10.1021/acs.jmedchem.6b00864

> <PMID>
27541007

> <PubChem AID>


> <Patent Number>


> <Authors>
Gjorgjieva, M; Tomaic, T; Barancokova, M; Katsamakas, S; Ila, J; Tammela, P; Peterlin Maic, L; Kikelj, D

> <Institution>
University of Ljubljana

> <Link to Ligand in BindingDB>
http://www.bindingdb.org/bind/chemsearch/marvin/MolStructure.jsp?monomerid=50198235

> <Link to Ligand-Target Pair in BindingDB>
http://www.bindingdb.org/jsp/dbsearch/PrimarySearch_ki.jsp?energyterm=kJ/mole&tag=pol&polymerid=2626&target=DNA+gyrase&column=ki&startPg=0&Increment=50&submit=Search

> <Link to Ligand-Target Pair in BindingDB>
http://www.bindingdb.org/jsp/dbsearch/PrimarySearch_ki.jsp?energyterm=kJ/mole&tag=r21&monomerid=50198235&enzyme=DNA+gyrase&column=ki&startPg=0&Increment=50&submit=Search

> <Ligand HET ID in PDB>


> <PDB ID(s) for Ligand-Target Complex>


> <PubChem CID>
134138146

> <PubChem SID>
375978187

> <ChEBI ID of Ligand>


> <ChEMBL ID of Ligand>


> <DrugBank ID of Ligand>


> <IUPHAR_GRAC ID of Ligand>


> <KEGG ID of Ligand>


> <ZINC ID of Ligand>


> <Number of Protein Chains in Target (>1 implies a multichain complex)>
1

> <BindingDB Target Chain Sequence>
MVTALSDVNNTDNYGAGQIQVLEGLEAVRKRPGMYIGSTSERGLHHLVWEIVDNSIDEALAGYANQIEVVIEKDNWIKVTDNGRGIPVDIQEKMGRPAVEVILTVLHAGGKFGGGGYKVSGGLHGVGSSVVNALSQDLEVYVHRNETIYHQAYKKGVPQFDLKEVGTTDKTGTVIRFKADGEIFTETTVYNYETLQQRIRELAFLNKGIQITLRDERDEENVREDSYHYEGGIKSYVELLNENKEPIHDEPIYIHQSKDDIEVEIAIQYNSGYATNLLTYANNIHTYEGGTHEDGFKRALTRVLNSYGLSSKIMKEEKDRLSGEDTREGMTAIISIKHGDPQFEGQTKTKLGNSEVRQVVDKLFSEHFERFLYENPQVARTVVEKGIMAARARVAAKKAREVTRRKSALDVASLPGKLADCSSKSPEECEIFLVEGDSAGGSTKSGRDSRTQAILPLRGKILNVEKARLDRILNNNEIRQMITAFGTGIGGDFDLAKARYHKIVIMTDADVDGAHIRTLLLTFFYRFMRPLIEAGYVYIAQPPLYKLTQGKQKYYVYNDRELDKLKSELNPTPKWSIARYKGLGEMNADQLWETTMNPEHRALLQVKLEDAIEADQTFEMLMGDVVENRRQFIEDNAVYANLDF

> <PDB ID(s) of Target Chain>


> <UniProt (SwissProt) Recommended Name of Target Chain>
DNA gyrase subunit B

> <UniProt (SwissProt) Entry Name of Target Chain>
GYRB_STAAU

> <UniProt (SwissProt) Primary ID of Target Chain>
P0A0K8

> <UniProt (SwissProt) Secondary ID(s) of Target Chain>
P20832

> <UniProt (SwissProt) Alternative ID(s) of Target Chain>


> <UniProt (TrEMBL) Submitted Name of Target Chain>


> <UniProt (TrEMBL) Entry Name of Target Chain>


> <UniProt (TrEMBL) Primary ID of Target Chain>


> <UniProt (TrEMBL) Secondary ID(s) of Target Chain>


> <UniProt (TrEMBL) Alternative ID(s) of Target Chain>


$$$$

  Mrv0541 11241408262D          

 31 34  0  0  0  0            999 V2000
   10.5652   -6.2500    0.0000 C   0  0  0  0  0  0  0  0  0  0  0  0
   10.5641   -7.0773    0.0000 C   0  0  0  0  0  0  0  0  0  0  0  0
   11.2789   -7.4902    0.0000 C   0  0  0  0  0  0  0  0  0  0  0  0
   11.2771   -5.8372    0.0000 C   0  0  0  0  0  0  0  0  0  0  0  0
   12.7838   -5.9923    0.0000 N   0  0  0  0  0  0  0  0  0  0  0  0
   11.9925   -6.2463    0.0000 C   0  0  0  0  0  0  0  0  0  0  0  0
   11.9906   -7.0781    0.0000 N   0  0  0  0  0  0  0  0  0  0  0  0
   12.7818   -7.3355    0.0000 C   0  0  0  0  0  0  0  0  0  0  0  0
   13.2698   -6.6619    0.0000 C   0  0  0  0  0  0  0  0  0  0  0  0
    9.8528   -5.8378    0.0000 C   0  0  0  0  0  0  0  0  0  0  0  0
    9.8539   -5.0117    0.0000 C   0  0  0  0  0  0  0  0  0  0  0  0
    9.1402   -4.5994    0.0000 N   0  0  0  0  0  0  0  0  0  0  0  0
    8.4248   -5.0122    0.0000 C   0  0  0  0  0  0  0  0  0  0  0  0
    8.4277   -5.8414    0.0000 N   0  0  0  0  0  0  0  0  0  0  0  0
    9.1420   -6.2499    0.0000 C   0  0  0  0  0  0  0  0  0  0  0  0
   11.2809   -8.3124    0.0000 C   0  0  0  0  0  0  0  0  0  0  0  0
   10.5650   -8.7247    0.0000 N   0  0  0  0  0  0  0  0  0  0  0  0
   10.5651   -9.5490    0.0000 C   0  0  0  0  0  0  0  0  0  0  0  0
   11.2804   -9.9619    0.0000 C   0  0  0  0  0  0  0  0  0  0  0  0
   11.9970   -9.5446    0.0000 C   0  0  0  0  0  0  0  0  0  0  0  0
   11.9933   -8.7217    0.0000 N   0  0  0  0  0  0  0  0  0  0  0  0
   14.0948   -6.6616    0.0000 N   0  0  0  0  0  0  0  0  0  0  0  0
   14.5070   -5.9470    0.0000 C   0  0  0  0  0  0  0  0  0  0  0  0
   14.0943   -5.2327    0.0000 O   0  0  0  0  0  0  0  0  0  0  0  0
   15.3320   -5.9466    0.0000 N   0  0  0  0  0  0  0  0  0  0  0  0
    7.7097   -4.6008    0.0000 N   0  0  0  0  0  0  0  0  0  0  0  0
    7.7084   -3.7758    0.0000 C   0  0  0  0  0  0  0  0  0  0  0  0
    6.9959   -5.0144    0.0000 C   0  0  0  0  0  0  0  0  0  0  0  0
   15.7448   -6.6609    0.0000 C   0  0  0  0  0  0  0  0  0  0  0  0
   16.5698   -6.6606    0.0000 C   0  0  0  0  0  0  0  0  0  0  0  0
   11.2819  -10.7869    0.0000 C   0  0  0  0  0  0  0  0  0  0  0  0
 15 10  2  0  0  0  0
  1 10  1  0  0  0  0
  6  4  1  0  0  0  0
  5  6  2  0  0  0  0
 16 17  2  0  0  0  0
  7  8  1  0  0  0  0
 17 18  1  0  0  0  0
  8  9  2  0  0  0  0
 18 19  2  0  0  0  0
  9  5  1  0  0  0  0
 19 20  1  0  0  0  0
  4  1  2  0  0  0  0
 20 21  2  0  0  0  0
 21 16  1  0  0  0  0
  3 16  1  0  0  0  0
  6  7  1  0  0  0  0
  9 22  1  0  0  0  0
 10 11  1  0  0  0  0
 22 23  1  0  0  0  0
 23 24  2  0  0  0  0
 11 12  2  0  0  0  0
 23 25  1  0  0  0  0
  2  3  2  0  0  0  0
 13 26  1  0  0  0  0
 12 13  1  0  0  0  0
 26 27  1  0  0  0  0
  3  7  1  0  0  0  0
 26 28  1  0  0  0  0
 13 14  2  0  0  0  0
 25 29  1  0  0  0  0
  1  2  1  0  0  0  0
 29 30  1  0  0  0  0
 14 15  1  0  0  0  0
 19 31  1  0  0  0  0
M  END
> <From> 
www.bindingDB.org

> <BindingDB Reactant_set_id>
50904840

> <Ligand InChI>
InChI=1S/C21H23N9O/c1-5-22-21(31)28-17-12-30-16(19-23-8-13(2)9-24-19)6-14(7-18(30)27-17)15-10-25-20(26-11-15)29(3)4/h6-12H,5H2,1-4H3,(H2,22,28,31)

> <Ligand InChI Key>
BERMWPOSONSRQV-UHFFFAOYSA-N

> <BindingDB MonomerID>
50378449

> <BindingDB Ligand Name>
CHEMBL576228

> <Target Name Assigned by Curator or DataSource>
DNA gyrase subunit B

> <Target Source Organism According to Curator or DataSource>
Streptococcus pneumoniae

> <Ki (nM)>


> <IC50 (nM)>
 524

> <Kd (nM)>


> <EC50 (nM)>


> <kon (M-1-s-1)>


> <koff (s-1)>


> <pH>


> <Temp C>


> <Curation/DataSource>
ChEMBL

> <Article DOI>
10.1016/j.bmcl.2009.07.141

> <PMID>
19683922

> <PubChem AID>


> <Patent Number>


> <Authors>
Starr, JT; Sciotti, RJ; Hanna, DL; Huband, MD; Mullins, LM; Cai, H; Gage, JW; Lockard, M; Rauckhorst, MR; Owen, RM; Lall, MS; Tomilo, M; Chen, H; McCurdy, SP; Barbachyn, MR

> <Institution>
Pfizer Inc.

> <Link to Ligand in BindingDB>
http://www.bindingdb.org/bind/chemsearch/marvin/MolStructure.jsp?monomerid=50378449

> <Link to Ligand-Target Pair in BindingDB>
http://www.bindingdb.org/jsp/dbsearch/PrimarySearch_ki.jsp?energyterm=kJ/mole&tag=pol&polymerid=50005944&target=DNA+gyrase+subunit+B&column=ki&startPg=0&Increment=50&submit=Search

> <Link to Ligand-Target Pair in BindingDB>
http://www.bindingdb.org/jsp/dbsearch/PrimarySearch_ki.jsp?energyterm=kJ/mole&tag=r21&monomerid=50378449&enzyme=DNA+gyrase+subunit+B&column=ki&startPg=0&Increment=50&submit=Search

> <Ligand HET ID in PDB>


> <PDB ID(s) for Ligand-Target Complex>


> <PubChem CID>
45484759

> <PubChem SID>
160857532

> <ChEBI ID of Ligand>


> <ChEMBL ID of Ligand>
CHEMBL576228

> <DrugBank ID of Ligand>


> <IUPHAR_GRAC ID of Ligand>


> <KEGG ID of Ligand>


> <ZINC ID of Ligand>
ZINC45300038

> <Number of Protein Chains in Target (>1 implies a multichain complex)>
1

> <BindingDB Target Chain Sequence>
MTEEIKNLQAQDYDASQIQVLEGLEAVRMRPGMYIGSTSKEGLHHLVWEIVDNSIDEALAGFASHIQVFIEPDDSITVVDDGRGIPVDIQEKTGRPAVETVFTVLHAGGKFGGGGYKVSGGLHGVGSSVVNALSTQLDVHVHKNGKIHYQEYRRGHVVADLEIVGDTDKTGTTVHFTPDPKIFTETTIFDFDKLNKRIQELAFLNRGLQISITDKRQGLEQTKHYHYEGGIASYVEYINENKDVIFDTPIYTDGEMDDITVEVAMQYTTGYHENVMSFANNIHTHEGGTHEQGFRTALTRVINDYARKNKLLKDNEDNLTGEDVREGLTAVISVKHPNPQFEGQTKTKLGNSEVVKITNRLFSEAFSDFLMENPQIAKRIVEKGILAAKARVAAKRAREVTRKKSGLEISNLPGKLADCSSNNPAETELFIVEGDSAGGSAKSGRNREFQAILPIRGKILNVEKASMDKILANEEIRSLFTAMGTGFGAEFDVSKARYQKLVLMTDADVDGAHIRTLLLTLIYRYMKPILEAGYVYIAQPPIYGVKVGSEIKEYIQPGADQEIKLQEALARYSEGRTKPTIQRYKGLGEMDDHQLWETTMDPEHRLMARVSVDDAAEADKIFDMLMGDRVEPRREFIEENAVYSTLDV

> <PDB ID(s) of Target Chain>
4Z2C,4Z2D,4Z2E

> <UniProt (SwissProt) Recommended Name of Target Chain>
DNA gyrase subunit B

> <UniProt (SwissProt) Entry Name of Target Chain>
GYRB_STRPN

> <UniProt (SwissProt) Primary ID of Target Chain>
P0A4L9

> <UniProt (SwissProt) Secondary ID(s) of Target Chain>
P48373

> <UniProt (SwissProt) Alternative ID(s) of Target Chain>


> <UniProt (TrEMBL) Submitted Name of Target Chain>


> <UniProt (TrEMBL) Entry Name of Target Chain>


> <UniProt (TrEMBL) Primary ID of Target Chain>


> <UniProt (TrEMBL) Secondary ID(s) of Target Chain>


> <UniProt (TrEMBL) Alternative ID(s) of Target Chain>


$$$$

  SciTegic09261414462D

 20 21  0  0  0  0            999 V2000
   15.7935  -18.6385    0.0000 C   0  0
   15.7923  -19.4581    0.0000 C   0  0
   16.5004  -19.8670    0.0000 C   0  0
   17.2100  -19.4576    0.0000 C   0  0
   17.2072  -18.6349    0.0000 C   0  0
   16.4986  -18.2297    0.0000 N   0  0
   15.0857  -18.2301    0.0000 N   0  0
   14.3781  -18.6389    0.0000 C   0  0
   13.6703  -18.2304    0.0000 N   0  0
   14.3783  -19.4561    0.0000 O   0  0
   12.9627  -18.6392    0.0000 C   0  0
   12.2548  -18.2308    0.0000 C   0  0
   17.9189  -19.8627    0.0000 C   0  0
   18.0056  -20.6752    0.0000 N   0  0
   18.8052  -20.8439    0.0000 C   0  0
   19.2127  -20.1355    0.0000 C   0  0
   18.6649  -19.5292    0.0000 S   0  0
   20.0253  -20.0487    0.0000 C   0  0
   20.5067  -20.7090    0.0000 N   0  0
   20.3565  -19.3016    0.0000 O   0  0
  1  2  2  0
  2  3  1  0
  3  4  2  0
  4  5  1  0
  5  6  2  0
  6  1  1  0
  1  7  1  0
  7  8  1  0
  8  9  1  0
  8 10  2  0
  9 11  1  0
 11 12  1  0
 13 14  2  0
 14 15  1  0
 15 16  2  0
 16 17  1  0
 17 13  1  0
  4 13  1  0
 16 18  1  0
 18 19  1  0
 18 20  2  0
M  END
> <From> 
www.bindingDB.org

> <BindingDB Reactant_set_id>
50083261

> <Ligand InChI>
InChI=1S/C12H13N5O2S/c1-2-14-12(19)17-9-4-3-7(5-15-9)11-16-6-8(20-11)10(13)18/h3-6H,2H2,1H3,(H2,13,18)(H2,14,15,17,19)

> <Ligand InChI Key>
JCOACYXHDWNVID-UHFFFAOYSA-N

> <BindingDB MonomerID>
50006557

> <BindingDB Ligand Name>
CHEMBL3235077

> <Target Name Assigned by Curator or DataSource>
DNA Gyrase Subunit B

> <Target Source Organism According to Curator or DataSource>
Staphylococcus aureus

> <Ki (nM)>


> <IC50 (nM)>
 550

> <Kd (nM)>


> <EC50 (nM)>


> <kon (M-1-s-1)>


> <koff (s-1)>


> <pH>


> <Temp C>


> <Curation/DataSource>
ChEMBL

> <Article DOI>
10.1021/jm401208b

> <PMID>
24098982

> <PubChem AID>


> <Patent Number>


> <Authors>
Basarab, GS; Basarab, GS; Boriack-Sjodin, PA; Boriack-Sjodin, PA; Illingworth, R; Illingworth, R; Manchester, JI; Manchester, JI; Dangel, B; Dangel, B; Sriram, S; Sriram, S

> <Institution>
AstraZeneca R&amp;D Boston

> <Link to Ligand in BindingDB>
http://www.bindingdb.org/bind/chemsearch/marvin/MolStructure.jsp?monomerid=50006557

> <Link to Ligand-Target Pair in BindingDB>
http://www.bindingdb.org/jsp/dbsearch/PrimarySearch_ki.jsp?energyterm=kJ/mole&tag=pol&polymerid=2626&target=DNA+Gyrase+Subunit+B&column=ki&startPg=0&Increment=50&submit=Search

> <Link to Ligand-Target Pair in BindingDB>
http://www.bindingdb.org/jsp/dbsearch/PrimarySearch_ki.jsp?energyterm=kJ/mole&tag=r21&monomerid=50006557&enzyme=DNA+Gyrase+Subunit+B&column=ki&startPg=0&Increment=50&submit=Search

> <Ligand HET ID in PDB>


> <PDB ID(s) for Ligand-Target Complex>


> <PubChem CID>
59208326

> <PubChem SID>
103919958

> <ChEBI ID of Ligand>


> <ChEMBL ID of Ligand>
CHEMBL3235077

> <DrugBank ID of Ligand>


> <IUPHAR_GRAC ID of Ligand>


> <KEGG ID of Ligand>


> <ZINC ID of Ligand>
ZINC26378712

> <Number of Protein Chains in Target (>1 implies a multichain complex)>
1

> <BindingDB Target Chain Sequence>
MVTALSDVNNTDNYGAGQIQVLEGLEAVRKRPGMYIGSTSERGLHHLVWEIVDNSIDEALAGYANQIEVVIEKDNWIKVTDNGRGIPVDIQEKMGRPAVEVILTVLHAGGKFGGGGYKVSGGLHGVGSSVVNALSQDLEVYVHRNETIYHQAYKKGVPQFDLKEVGTTDKTGTVIRFKADGEIFTETTVYNYETLQQRIRELAFLNKGIQITLRDERDEENVREDSYHYEGGIKSYVELLNENKEPIHDEPIYIHQSKDDIEVEIAIQYNSGYATNLLTYANNIHTYEGGTHEDGFKRALTRVLNSYGLSSKIMKEEKDRLSGEDTREGMTAIISIKHGDPQFEGQTKTKLGNSEVRQVVDKLFSEHFERFLYENPQVARTVVEKGIMAARARVAAKKAREVTRRKSALDVASLPGKLADCSSKSPEECEIFLVEGDSAGGSTKSGRDSRTQAILPLRGKILNVEKARLDRILNNNEIRQMITAFGTGIGGDFDLAKARYHKIVIMTDADVDGAHIRTLLLTFFYRFMRPLIEAGYVYIAQPPLYKLTQGKQKYYVYNDRELDKLKSELNPTPKWSIARYKGLGEMNADQLWETTMNPEHRALLQVKLEDAIEADQTFEMLMGDVVENRRQFIEDNAVYANLDF

> <PDB ID(s) of Target Chain>


> <UniProt (SwissProt) Recommended Name of Target Chain>
DNA gyrase subunit B

> <UniProt (SwissProt) Entry Name of Target Chain>
GYRB_STAAU

> <UniProt (SwissProt) Primary ID of Target Chain>
P0A0K8

> <UniProt (SwissProt) Secondary ID(s) of Target Chain>
P20832

> <UniProt (SwissProt) Alternative ID(s) of Target Chain>


> <UniProt (TrEMBL) Submitted Name of Target Chain>


> <UniProt (TrEMBL) Entry Name of Target Chain>


> <UniProt (TrEMBL) Primary ID of Target Chain>


> <UniProt (TrEMBL) Secondary ID(s) of Target Chain>


> <UniProt (TrEMBL) Alternative ID(s) of Target Chain>


$$$$

  SciTegic12201612272D

 24 27  0  0  0  0            999 V2000
    0.2917   -0.7475    0.0000 C   0  0
    0.2917    0.7475    0.0000 C   0  0
   -1.0028    1.5132    0.0000 C   0  0
   -2.3155    0.7475    0.0000 C   0  0
   -2.3155   -0.7475    0.0000 C   0  0
   -1.0028   -1.5132    0.0000 N   0  0
    2.5889    0.0182    0.0000 N   0  0
    1.7138   -1.2033    0.0000 N   0  0
    1.7138    1.2033    0.0000 C   0  0
   -3.3560   -1.3452    0.0000 O   0  0
    3.6243    2.9682    0.0000 S   0  0
    3.7308    4.4645    0.0000 C   0  0
    2.3406    5.0280    0.0000 N   0  0
    1.3751    3.8801    0.0000 C   0  0
    2.1749    2.6315    0.0000 C   0  0
    6.3724    4.6552    0.0000 C   0  0
    5.0044    5.2582    0.0000 C   0  0
    4.8363    6.7505    0.0000 C   0  0
    6.0460    7.6374    0.0000 C   0  0
    7.4189    7.0332    0.0000 C   0  0
    7.5821    5.5421    0.0000 N   0  0
   -0.9971   -3.0138    0.0000 C   0  0
   -2.2935   -3.7700    0.0000 C   0  0
   -2.2889   -4.9699    0.0000 O   0  0
  1  2  2  0
  2  3  1  0
  3  4  2  0
  4  5  1  0
  5  6  1  0
  1  6  1  0
  7  8  1  0
  7  9  2  0
  1  8  1  0
  2  9  1  0
  5 10  2  0
 11 12  1  0
 12 13  2  0
 13 14  1  0
 14 15  2  0
 11 15  1  0
 16 17  1  0
 17 18  2  0
 18 19  1  0
 19 20  2  0
 20 21  1  0
 16 21  2  0
 12 17  1  0
  9 15  1  0
 22 23  1  0
 23 24  1  0
  6 22  1  0
M  END
> <From> 
www.bindingDB.org

> <BindingDB Reactant_set_id>
50498695

> <Ligand InChI>
InChI=1S/C16H13N5O2S/c22-7-6-21-13(23)4-3-11-14(19-20-15(11)21)12-9-18-16(24-12)10-2-1-5-17-8-10/h1-5,8-9,22H,6-7H2,(H,19,20)

> <Ligand InChI Key>
GGCZGENFPFRBSK-UHFFFAOYSA-N

> <BindingDB MonomerID>
50173883

> <BindingDB Ligand Name>
CHEMBL3809203

> <Target Name Assigned by Curator or DataSource>
DNA gyrase

> <Target Source Organism According to Curator or DataSource>
Staphylococcus aureus

> <Ki (nM)>


> <IC50 (nM)>
 564

> <Kd (nM)>


> <EC50 (nM)>


> <kon (M-1-s-1)>


> <koff (s-1)>


> <pH>


> <Temp C>


> <Curation/DataSource>
ChEMBL

> <Article DOI>
10.1021/acsmedchemlett.5b00368

> <PMID>
27096044

> <PubChem AID>


> <Patent Number>


> <Authors>
Cross, JB; Zhang, J; Yang, Q; Mesleh, MF; Romero, JA; Wang, B; Bevan, D; Poutsiaka, KM; Epie, F; Moy, T; Daniel, A; Shotwell, J; Chamberlain, B; Carter, N; Andersen, O; Barker, J; Ryan, MD; Metcalf, CA; Silverman, J; Nguyen, K; Lippa, B; Dolle, RE

> <Institution>
Cubist Pharmaceuticals, Inc.

> <Link to Ligand in BindingDB>
http://www.bindingdb.org/bind/chemsearch/marvin/MolStructure.jsp?monomerid=50173883

> <Link to Ligand-Target Pair in BindingDB>
http://www.bindingdb.org/jsp/dbsearch/PrimarySearch_ki.jsp?energyterm=kJ/mole&tag=pol&polymerid=2626&target=DNA+gyrase&column=ki&startPg=0&Increment=50&submit=Search

> <Link to Ligand-Target Pair in BindingDB>
http://www.bindingdb.org/jsp/dbsearch/PrimarySearch_ki.jsp?energyterm=kJ/mole&tag=r21&monomerid=50173883&enzyme=DNA+gyrase&column=ki&startPg=0&Increment=50&submit=Search

> <Ligand HET ID in PDB>


> <PDB ID(s) for Ligand-Target Complex>


> <PubChem CID>
127044534

> <PubChem SID>
346548902

> <ChEBI ID of Ligand>


> <ChEMBL ID of Ligand>


> <DrugBank ID of Ligand>


> <IUPHAR_GRAC ID of Ligand>


> <KEGG ID of Ligand>


> <ZINC ID of Ligand>


> <Number of Protein Chains in Target (>1 implies a multichain complex)>
1

> <BindingDB Target Chain Sequence>
MVTALSDVNNTDNYGAGQIQVLEGLEAVRKRPGMYIGSTSERGLHHLVWEIVDNSIDEALAGYANQIEVVIEKDNWIKVTDNGRGIPVDIQEKMGRPAVEVILTVLHAGGKFGGGGYKVSGGLHGVGSSVVNALSQDLEVYVHRNETIYHQAYKKGVPQFDLKEVGTTDKTGTVIRFKADGEIFTETTVYNYETLQQRIRELAFLNKGIQITLRDERDEENVREDSYHYEGGIKSYVELLNENKEPIHDEPIYIHQSKDDIEVEIAIQYNSGYATNLLTYANNIHTYEGGTHEDGFKRALTRVLNSYGLSSKIMKEEKDRLSGEDTREGMTAIISIKHGDPQFEGQTKTKLGNSEVRQVVDKLFSEHFERFLYENPQVARTVVEKGIMAARARVAAKKAREVTRRKSALDVASLPGKLADCSSKSPEECEIFLVEGDSAGGSTKSGRDSRTQAILPLRGKILNVEKARLDRILNNNEIRQMITAFGTGIGGDFDLAKARYHKIVIMTDADVDGAHIRTLLLTFFYRFMRPLIEAGYVYIAQPPLYKLTQGKQKYYVYNDRELDKLKSELNPTPKWSIARYKGLGEMNADQLWETTMNPEHRALLQVKLEDAIEADQTFEMLMGDVVENRRQFIEDNAVYANLDF

> <PDB ID(s) of Target Chain>


> <UniProt (SwissProt) Recommended Name of Target Chain>
DNA gyrase subunit B

> <UniProt (SwissProt) Entry Name of Target Chain>
GYRB_STAAU

> <UniProt (SwissProt) Primary ID of Target Chain>
P0A0K8

> <UniProt (SwissProt) Secondary ID(s) of Target Chain>
P20832

> <UniProt (SwissProt) Alternative ID(s) of Target Chain>


> <UniProt (TrEMBL) Submitted Name of Target Chain>


> <UniProt (TrEMBL) Entry Name of Target Chain>


> <UniProt (TrEMBL) Primary ID of Target Chain>


> <UniProt (TrEMBL) Secondary ID(s) of Target Chain>


> <UniProt (TrEMBL) Alternative ID(s) of Target Chain>


$$$$

  Mrv0541 11231413392D          

 45 49  0  0  0  0            999 V2000
   10.3798  -21.3479    0.0000 C   0  0  0  0  0  0  0  0  0  0  0  0
    9.6538  -20.9463    0.0000 C   0  0  1  0  0  0  0  0  0  0  0  0
    8.9471  -21.3719    0.0000 C   0  0  2  0  0  0  0  0  0  0  0  0
    8.9600  -22.2007    0.0000 C   0  0  2  0  0  0  0  0  0  0  0  0
    9.6860  -22.6022    0.0000 C   0  0  1  0  0  0  0  0  0  0  0  0
   10.3990  -22.1749    0.0000 O   0  0  0  0  0  0  0  0  0  0  0  0
    9.7003  -23.4270    0.0000 O   0  0  0  0  0  0  0  0  0  0  0  0
   10.4200  -23.8383    0.0000 C   0  0  0  0  0  0  0  0  0  0  0  0
   10.4192  -24.6628    0.0000 C   0  0  0  0  0  0  0  0  0  0  0  0
   11.1348  -23.4240    0.0000 C   0  0  0  0  0  0  0  0  0  0  0  0
   11.8492  -23.8418    0.0000 C   0  0  0  0  0  0  0  0  0  0  0  0
   11.8474  -24.6664    0.0000 C   0  0  0  0  0  0  0  0  0  0  0  0
   11.1322  -25.0779    0.0000 C   0  0  0  0  0  0  0  0  0  0  0  0
   11.1310  -25.8986    0.0000 O   0  0  0  0  0  0  0  0  0  0  0  0
   11.8433  -26.3139    0.0000 C   0  0  0  0  0  0  0  0  0  0  0  0
   12.5585  -25.9025    0.0000 C   0  0  0  0  0  0  0  0  0  0  0  0
   12.5615  -25.0755    0.0000 C   0  0  0  0  0  0  0  0  0  0  0  0
   13.2759  -24.6631    0.0000 O   0  0  0  0  0  0  0  0  0  0  0  0
   11.8409  -27.1389    0.0000 O   0  0  0  0  0  0  0  0  0  0  0  0
   13.2719  -26.3167    0.0000 N   0  0  0  0  0  0  0  0  0  0  0  0
   13.2698  -27.1417    0.0000 C   0  0  0  0  0  0  0  0  0  0  0  0
   12.5544  -27.5523    0.0000 O   0  0  0  0  0  0  0  0  0  0  0  0
   11.2073  -21.3290    0.0000 C   0  0  0  0  0  0  0  0  0  0  0  0
   10.3689  -20.5248    0.0000 C   0  0  0  0  0  0  0  0  0  0  0  0
    9.6388  -20.1215    0.0000 O   0  0  0  0  0  0  0  0  0  0  0  0
   10.3455  -19.6960    0.0000 C   0  0  0  0  0  0  0  0  0  0  0  0
    8.2258  -20.9715    0.0000 O   0  0  0  0  0  0  0  0  0  0  0  0
    8.2527  -22.6253    0.0000 O   0  0  0  0  0  0  0  0  0  0  0  0
    9.7039  -25.0736    0.0000 Cl  0  0  0  0  0  0  0  0  0  0  0  0
    7.5314  -22.2249    0.0000 C   0  0  0  0  0  0  0  0  0  0  0  0
    6.8228  -22.6504    0.0000 C   0  0  0  0  0  0  0  0  0  0  0  0
    7.5174  -21.4000    0.0000 O   0  0  0  0  0  0  0  0  0  0  0  0
    6.1782  -22.1425    0.0000 N   0  0  0  0  0  0  0  0  0  0  0  0
    5.4926  -22.6014    0.0000 C   0  0  0  0  0  0  0  0  0  0  0  0
    5.7172  -23.3952    0.0000 C   0  0  0  0  0  0  0  0  0  0  0  0
    6.5415  -23.4269    0.0000 C   0  0  0  0  0  0  0  0  0  0  0  0
    4.7757  -22.1869    0.0000 C   0  0  0  0  0  0  0  0  0  0  0  0
   13.9833  -27.5559    0.0000 C   0  0  0  0  0  0  0  0  0  0  0  0
   13.9812  -28.3809    0.0000 C   0  0  0  0  0  0  0  0  0  0  0  0
   14.6946  -28.7951    0.0000 C   0  0  0  0  0  0  0  0  0  0  0  0
   14.6888  -29.6177    0.0000 C   0  0  0  0  0  0  0  0  0  0  0  0
   15.4013  -30.0318    0.0000 C   0  0  0  0  0  0  0  0  0  0  0  0
   16.1178  -29.6211    0.0000 C   0  0  0  0  0  0  0  0  0  0  0  0
   16.1173  -28.7918    0.0000 C   0  0  0  0  0  0  0  0  0  0  0  0
   15.4041  -28.3814    0.0000 C   0  0  0  0  0  0  0  0  0  0  0  0
  9 13  2  0  0  0  0
 21 22  2  0  0  0  0
 11 10  1  0  0  0  0
  1 23  1  0  0  0  0
 11 12  2  0  0  0  0
  1 24  1  0  0  0  0
  3  4  1  0  0  0  0
  2 25  1  1  0  0  0
 12 13  1  0  0  0  0
 25 26  1  0  0  0  0
  4  5  1  0  0  0  0
  3 27  1  6  0  0  0
  5  6  1  0  0  0  0
  4 28  1  6  0  0  0
  9 29  1  0  0  0  0
  5  7  1  1  0  0  0
 28 30  1  0  0  0  0
  2  1  1  0  0  0  0
 30 31  1  0  0  0  0
  7  8  1  0  0  0  0
 30 32  2  0  0  0  0
 31 33  1  0  0  0  0
 12 17  1  0  0  0  0
 13 14  1  0  0  0  0
 14 15  1  0  0  0  0
 15 16  1  0  0  0  0
 33 34  1  0  0  0  0
 34 35  2  0  0  0  0
 35 36  1  0  0  0  0
 36 31  2  0  0  0  0
 16 17  2  0  0  0  0
 34 37  1  0  0  0  0
  8  9  1  0  0  0  0
 21 38  1  0  0  0  0
 17 18  1  0  0  0  0
 38 39  2  0  0  0  0
  1  6  1  0  0  0  0
 39 40  1  0  0  0  0
 15 19  2  0  0  0  0
 40 41  2  0  0  0  0
  3  2  1  0  0  0  0
 41 42  1  0  0  0  0
 16 20  1  0  0  0  0
 42 43  2  0  0  0  0
  8 10  2  0  0  0  0
 43 44  1  0  0  0  0
 20 21  1  0  0  0  0
 44 45  2  0  0  0  0
 45 40  1  0  0  0  0
M  END
> <From> 
www.bindingDB.org

> <BindingDB Reactant_set_id>
50607667

> <Ligand InChI>
InChI=1S/C32H31ClN2O10/c1-16-10-13-19(34-16)29(39)44-27-25(38)28(41-4)32(2,3)45-31(27)42-20-14-12-18-24(37)23(30(40)43-26(18)22(20)33)35-21(36)15-11-17-8-6-5-7-9-17/h5-15,25,27-28,31,34,37-38H,1-4H3,(H,35,36)/b15-11+/t25-,27+,28+,31+/m0/s1

> <Ligand InChI Key>
OHUMOGWHGJTPKY-ULGXMYAKSA-N

> <BindingDB MonomerID>
50330297

> <BindingDB Ligand Name>
(2S,3R,4R,5R)-2-(8-chloro-3-cinnamamido-4-hydroxy-2-oxo-2H-chromen-7-yloxy)-4-hydroxy-5-methoxy-6,6-dimethyltetrahydro-2H-pyran-3-yl 5-methyl-1H-pyrrole-2-carboxylate::CHEMBL1275896

> <Target Name Assigned by Curator or DataSource>
DNA Gyrase Subunit B

> <Target Source Organism According to Curator or DataSource>
Escherichia coli

> <Ki (nM)>


> <IC50 (nM)>
 598

> <Kd (nM)>


> <EC50 (nM)>


> <kon (M-1-s-1)>


> <koff (s-1)>


> <pH>


> <Temp C>


> <Curation/DataSource>
ChEMBL

> <Article DOI>
10.1128/AAC.01235-07

> <PMID>
18347114

> <PubChem AID>


> <Patent Number>


> <Authors>
Anderle, C; Stieger, M; Burrell, M; Reinelt, S; Maxwell, A; Page, M; Heide, L

> <Institution>
Universit&#228;t T&#252;bingen

> <Link to Ligand in BindingDB>
http://www.bindingdb.org/bind/chemsearch/marvin/MolStructure.jsp?monomerid=50330297

> <Link to Ligand-Target Pair in BindingDB>
http://www.bindingdb.org/jsp/dbsearch/PrimarySearch_ki.jsp?energyterm=kJ/mole&tag=pol&polymerid=2630&target=DNA+Gyrase+Subunit+B&column=ki&startPg=0&Increment=50&submit=Search

> <Link to Ligand-Target Pair in BindingDB>
http://www.bindingdb.org/jsp/dbsearch/PrimarySearch_ki.jsp?energyterm=kJ/mole&tag=r21&monomerid=50330297&enzyme=DNA+Gyrase+Subunit+B&column=ki&startPg=0&Increment=50&submit=Search

> <Ligand HET ID in PDB>


> <PDB ID(s) for Ligand-Target Complex>


> <PubChem CID>
54730382

> <PubChem SID>
123109412

> <ChEBI ID of Ligand>


> <ChEMBL ID of Ligand>
CHEMBL1275896

> <DrugBank ID of Ligand>


> <IUPHAR_GRAC ID of Ligand>


> <KEGG ID of Ligand>


> <ZINC ID of Ligand>
ZINC72136395

> <Number of Protein Chains in Target (>1 implies a multichain complex)>
1

> <BindingDB Target Chain Sequence>
MSNSYDSSSIKVLKGLDAVRKRPGMYIGDTDDGTGLHHMVFEVVDNAIDEALAGHCKEII
VTIHADNSVSVQDDGRGIPTGIHPEEGVSAAEVIMTVLHAGGKFDDNSYKVSGGLHGVGV
SVVNALSQKLELVIQREGKIHRQIYEHGVPQAPLAVTGETEKTGTMVRFWPSLETFTNVT
EFEYEILAKRLRELSFLNSGVSIRLRDKRDGKEDHFHYEGGIKAFVEYLNKNKTPIHPNI
FYFSTEKDGIGVEVALQWNDGFQENIYCFTNNIPQRDGGTHLAGFRAAMTRTLNAYMDKE
GYSKKAKVSATGDDAREGLIAVVSVKVPDPKFSSQTKDKLVSSEVKSAVEQQMNELLAEY
LLENPTDAKIVVGKIIDAARAREAARRAREMTRRKGALDLAGLPGKLADCQERDPALSEL
YLVEGDSAGGSAKQGRNRKNQAILPLKGKILNVEKARFDKMLSSQEVATLITALGCGIGR
DEYNPDKLRYHSIIIMTDADVDGSHIRTLLLTFFYRQMPEIVERGHVYIAQPPLYKVKKG
KQEQYIKDDEAMDQYQISIALDGATLHTNASAPALAGEALEKLVSEYNATQKMINRMERR
YPKAMLKELIYQPTLTEADLSDEQTVTRWVNALVSELNDKEQHGSQWKFDVHTNAEQNLF
EPIVRVRTHGVDTDYPLDHEFITGGEYRRICTLGEKLRGLLEEDAFIERGERRQPVASFE
QALDWLVKESRRGLSIQRYKGLGEMNPEQLWETTMDPESRRMLRVTVKDAIAADQLFTTL
MGDAVEPRRAFIEENALKAANIDI

> <PDB ID(s) of Target Chain>
1KZN,3G7E,3NUH,4DUH,4HYP,4KFG,4PRV,4PRX,4PU9,4WUB,4WUC,4WUD,4XTJ,4ZVI,5L3J,5MMN,5MMO,5MMP,5Z4H,5Z4O,5Z9B,5Z9E,5Z9F,5Z9L,5Z9M,5Z9N,5Z9Q,6ENG,6F86,6F8J,6F94,6F96

> <UniProt (SwissProt) Recommended Name of Target Chain>
DNA gyrase subunit B

> <UniProt (SwissProt) Entry Name of Target Chain>
GYRB_ECOLI

> <UniProt (SwissProt) Primary ID of Target Chain>
P0AES6

> <UniProt (SwissProt) Secondary ID(s) of Target Chain>
O08438,P06982,Q2M811

> <UniProt (SwissProt) Alternative ID(s) of Target Chain>


> <UniProt (TrEMBL) Submitted Name of Target Chain>


> <UniProt (TrEMBL) Entry Name of Target Chain>


> <UniProt (TrEMBL) Primary ID of Target Chain>


> <UniProt (TrEMBL) Secondary ID(s) of Target Chain>


> <UniProt (TrEMBL) Alternative ID(s) of Target Chain>


$$$$

  Mrv0541 11231413392D          

 47 51  0  0  0  0            999 V2000
   11.1172    0.2845    0.0000 C   0  0  0  0  0  0  0  0  0  0  0  0
   10.3914    0.6860    0.0000 C   0  0  1  0  0  0  0  0  0  0  0  0
    9.6846    0.2606    0.0000 C   0  0  2  0  0  0  0  0  0  0  0  0
    9.6975   -0.5682    0.0000 C   0  0  2  0  0  0  0  0  0  0  0  0
   10.4234   -0.9698    0.0000 C   0  0  1  0  0  0  0  0  0  0  0  0
   11.1363   -0.5425    0.0000 O   0  0  0  0  0  0  0  0  0  0  0  0
   10.4377   -1.7946    0.0000 O   0  0  0  0  0  0  0  0  0  0  0  0
   11.1573   -2.2059    0.0000 C   0  0  0  0  0  0  0  0  0  0  0  0
   11.1567   -3.0302    0.0000 C   0  0  0  0  0  0  0  0  0  0  0  0
   11.8722   -1.7916    0.0000 C   0  0  0  0  0  0  0  0  0  0  0  0
   12.5865   -2.2093    0.0000 C   0  0  0  0  0  0  0  0  0  0  0  0
   12.5848   -3.0339    0.0000 C   0  0  0  0  0  0  0  0  0  0  0  0
   11.8695   -3.4455    0.0000 C   0  0  0  0  0  0  0  0  0  0  0  0
   11.8683   -4.2660    0.0000 O   0  0  0  0  0  0  0  0  0  0  0  0
   12.5806   -4.6813    0.0000 C   0  0  0  0  0  0  0  0  0  0  0  0
   13.2959   -4.2698    0.0000 C   0  0  0  0  0  0  0  0  0  0  0  0
   13.2987   -3.4430    0.0000 C   0  0  0  0  0  0  0  0  0  0  0  0
   14.0132   -3.0306    0.0000 O   0  0  0  0  0  0  0  0  0  0  0  0
   12.5783   -5.5062    0.0000 O   0  0  0  0  0  0  0  0  0  0  0  0
   14.0092   -4.6841    0.0000 N   0  0  0  0  0  0  0  0  0  0  0  0
   14.0072   -5.5090    0.0000 C   0  0  0  0  0  0  0  0  0  0  0  0
   13.2917   -5.9197    0.0000 O   0  0  0  0  0  0  0  0  0  0  0  0
   14.7205   -5.9232    0.0000 C   0  0  0  0  0  0  0  0  0  0  0  0
   14.7155   -6.7474    0.0000 C   0  0  0  0  0  0  0  0  0  0  0  0
   15.4281   -7.1615    0.0000 C   0  0  0  0  0  0  0  0  0  0  0  0
   16.1445   -6.7508    0.0000 C   0  0  0  0  0  0  0  0  0  0  0  0
   16.1440   -5.9216    0.0000 C   0  0  0  0  0  0  0  0  0  0  0  0
   15.4308   -5.5112    0.0000 C   0  0  0  0  0  0  0  0  0  0  0  0
   16.8585   -7.1641    0.0000 O   0  0  0  0  0  0  0  0  0  0  0  0
   16.8579   -5.5084    0.0000 C   0  0  0  0  0  0  0  0  0  0  0  0
   11.9446    0.3035    0.0000 C   0  0  0  0  0  0  0  0  0  0  0  0
   11.1063    1.1076    0.0000 C   0  0  0  0  0  0  0  0  0  0  0  0
   10.3762    1.5108    0.0000 O   0  0  0  0  0  0  0  0  0  0  0  0
   11.0830    1.9364    0.0000 C   0  0  0  0  0  0  0  0  0  0  0  0
    8.9633    0.6608    0.0000 O   0  0  0  0  0  0  0  0  0  0  0  0
    8.9902   -0.9928    0.0000 O   0  0  0  0  0  0  0  0  0  0  0  0
   10.4413   -3.4412    0.0000 C   0  0  0  0  0  0  0  0  0  0  0  0
   17.5727   -5.9201    0.0000 C   0  0  0  0  0  0  0  0  0  0  0  0
   18.2868   -5.5069    0.0000 C   0  0  0  0  0  0  0  0  0  0  0  0
    8.2689   -0.5924    0.0000 C   0  0  0  0  0  0  0  0  0  0  0  0
    7.5603   -1.0180    0.0000 C   0  0  0  0  0  0  0  0  0  0  0  0
    8.2549    0.2323    0.0000 O   0  0  0  0  0  0  0  0  0  0  0  0
    6.9158   -0.5101    0.0000 N   0  0  0  0  0  0  0  0  0  0  0  0
    6.2302   -0.9689    0.0000 C   0  0  0  0  0  0  0  0  0  0  0  0
    6.4548   -1.7628    0.0000 C   0  0  0  0  0  0  0  0  0  0  0  0
    7.2791   -1.7944    0.0000 C   0  0  0  0  0  0  0  0  0  0  0  0
    5.5133   -0.5546    0.0000 C   0  0  0  0  0  0  0  0  0  0  0  0
 11 10  1  0  0  0  0
 21 23  1  0  0  0  0
 11 12  2  0  0  0  0
 23 24  2  0  0  0  0
  3  4  1  0  0  0  0
 24 25  1  0  0  0  0
 12 13  1  0  0  0  0
 25 26  2  0  0  0  0
  4  5  1  0  0  0  0
 26 27  1  0  0  0  0
  5  6  1  0  0  0  0
 27 28  2  0  0  0  0
 28 23  1  0  0  0  0
 26 29  1  0  0  0  0
  5  7  1  1  0  0  0
 27 30  1  0  0  0  0
  2  1  1  0  0  0  0
  1 31  1  0  0  0  0
  7  8  1  0  0  0  0
  1 32  1  0  0  0  0
 12 17  1  0  0  0  0
  2 33  1  1  0  0  0
 13 14  1  0  0  0  0
 33 34  1  0  0  0  0
 14 15  1  0  0  0  0
  3 35  1  6  0  0  0
 15 16  1  0  0  0  0
  4 36  1  6  0  0  0
 16 17  2  0  0  0  0
  9 37  1  0  0  0  0
  8  9  1  0  0  0  0
 30 38  1  0  0  0  0
 17 18  1  0  0  0  0
 38 39  1  0  0  0  0
  1  6  1  0  0  0  0
 36 40  1  0  0  0  0
 15 19  2  0  0  0  0
 40 41  1  0  0  0  0
  3  2  1  0  0  0  0
 40 42  2  0  0  0  0
 41 43  1  0  0  0  0
 16 20  1  0  0  0  0
  8 10  2  0  0  0  0
 20 21  1  0  0  0  0
  9 13  2  0  0  0  0
 43 44  1  0  0  0  0
 44 45  2  0  0  0  0
 45 46  1  0  0  0  0
 46 41  2  0  0  0  0
 21 22  2  0  0  0  0
 44 47  1  0  0  0  0
M  END
> <From> 
www.bindingDB.org

> <BindingDB Reactant_set_id>
50607666

> <Ligand InChI>
InChI=1S/C34H38N2O11/c1-7-8-18-15-19(10-13-22(18)37)30(40)36-24-25(38)20-11-14-23(17(3)27(20)45-32(24)42)44-33-28(26(39)29(43-6)34(4,5)47-33)46-31(41)21-12-9-16(2)35-21/h9-15,26,28-29,33,35,37-39H,7-8H2,1-6H3,(H,36,40)/t26-,28+,29+,33+/m0/s1

> <Ligand InChI Key>
KCDAVNIYYNEPGO-DBPUXHPHSA-N

> <BindingDB MonomerID>
50330295

> <BindingDB Ligand Name>
(2R,3R,4R,5R)-4-hydroxy-2-(4-hydroxy-3-(4-hydroxy-3-propylbenzamido)-8-methyl-2-oxo-2H-chromen-7-yloxy)-5-methoxy-6,6-dimethyltetrahydro-2H-pyran-3-yl 5-methyl-1H-pyrrole-2-carboxylate::CHEMBL1275897

> <Target Name Assigned by Curator or DataSource>
DNA Gyrase Subunit B

> <Target Source Organism According to Curator or DataSource>
Escherichia coli

> <Ki (nM)>


> <IC50 (nM)>
 758

> <Kd (nM)>


> <EC50 (nM)>


> <kon (M-1-s-1)>


> <koff (s-1)>


> <pH>


> <Temp C>


> <Curation/DataSource>
ChEMBL

> <Article DOI>
10.1128/AAC.01235-07

> <PMID>
18347114

> <PubChem AID>


> <Patent Number>


> <Authors>
Anderle, C; Stieger, M; Burrell, M; Reinelt, S; Maxwell, A; Page, M; Heide, L

> <Institution>
Universit&#228;t T&#252;bingen

> <Link to Ligand in BindingDB>
http://www.bindingdb.org/bind/chemsearch/marvin/MolStructure.jsp?monomerid=50330295

> <Link to Ligand-Target Pair in BindingDB>
http://www.bindingdb.org/jsp/dbsearch/PrimarySearch_ki.jsp?energyterm=kJ/mole&tag=pol&polymerid=2630&target=DNA+Gyrase+Subunit+B&column=ki&startPg=0&Increment=50&submit=Search

> <Link to Ligand-Target Pair in BindingDB>
http://www.bindingdb.org/jsp/dbsearch/PrimarySearch_ki.jsp?energyterm=kJ/mole&tag=r21&monomerid=50330295&enzyme=DNA+Gyrase+Subunit+B&column=ki&startPg=0&Increment=50&submit=Search

> <Ligand HET ID in PDB>


> <PDB ID(s) for Ligand-Target Complex>


> <PubChem CID>
54729438

> <PubChem SID>
123109410

> <ChEBI ID of Ligand>


> <ChEMBL ID of Ligand>
CHEMBL1275897

> <DrugBank ID of Ligand>


> <IUPHAR_GRAC ID of Ligand>


> <KEGG ID of Ligand>


> <ZINC ID of Ligand>
ZINC72136396

> <Number of Protein Chains in Target (>1 implies a multichain complex)>
1

> <BindingDB Target Chain Sequence>
MSNSYDSSSIKVLKGLDAVRKRPGMYIGDTDDGTGLHHMVFEVVDNAIDEALAGHCKEII
VTIHADNSVSVQDDGRGIPTGIHPEEGVSAAEVIMTVLHAGGKFDDNSYKVSGGLHGVGV
SVVNALSQKLELVIQREGKIHRQIYEHGVPQAPLAVTGETEKTGTMVRFWPSLETFTNVT
EFEYEILAKRLRELSFLNSGVSIRLRDKRDGKEDHFHYEGGIKAFVEYLNKNKTPIHPNI
FYFSTEKDGIGVEVALQWNDGFQENIYCFTNNIPQRDGGTHLAGFRAAMTRTLNAYMDKE
GYSKKAKVSATGDDAREGLIAVVSVKVPDPKFSSQTKDKLVSSEVKSAVEQQMNELLAEY
LLENPTDAKIVVGKIIDAARAREAARRAREMTRRKGALDLAGLPGKLADCQERDPALSEL
YLVEGDSAGGSAKQGRNRKNQAILPLKGKILNVEKARFDKMLSSQEVATLITALGCGIGR
DEYNPDKLRYHSIIIMTDADVDGSHIRTLLLTFFYRQMPEIVERGHVYIAQPPLYKVKKG
KQEQYIKDDEAMDQYQISIALDGATLHTNASAPALAGEALEKLVSEYNATQKMINRMERR
YPKAMLKELIYQPTLTEADLSDEQTVTRWVNALVSELNDKEQHGSQWKFDVHTNAEQNLF
EPIVRVRTHGVDTDYPLDHEFITGGEYRRICTLGEKLRGLLEEDAFIERGERRQPVASFE
QALDWLVKESRRGLSIQRYKGLGEMNPEQLWETTMDPESRRMLRVTVKDAIAADQLFTTL
MGDAVEPRRAFIEENALKAANIDI

> <PDB ID(s) of Target Chain>
1KZN,3G7E,3NUH,4DUH,4HYP,4KFG,4PRV,4PRX,4PU9,4WUB,4WUC,4WUD,4XTJ,4ZVI,5L3J,5MMN,5MMO,5MMP,5Z4H,5Z4O,5Z9B,5Z9E,5Z9F,5Z9L,5Z9M,5Z9N,5Z9Q,6ENG,6F86,6F8J,6F94,6F96

> <UniProt (SwissProt) Recommended Name of Target Chain>
DNA gyrase subunit B

> <UniProt (SwissProt) Entry Name of Target Chain>
GYRB_ECOLI

> <UniProt (SwissProt) Primary ID of Target Chain>
P0AES6

> <UniProt (SwissProt) Secondary ID(s) of Target Chain>
O08438,P06982,Q2M811

> <UniProt (SwissProt) Alternative ID(s) of Target Chain>


> <UniProt (TrEMBL) Submitted Name of Target Chain>


> <UniProt (TrEMBL) Entry Name of Target Chain>


> <UniProt (TrEMBL) Primary ID of Target Chain>


> <UniProt (TrEMBL) Secondary ID(s) of Target Chain>


> <UniProt (TrEMBL) Alternative ID(s) of Target Chain>


$$$$

  Mrv0541 11231413392D          

 45 49  0  0  0  0            999 V2000
    0.0953    2.1682    0.0000 C   0  0  0  0  0  0  0  0  0  0  0  0
   -0.6307    2.5697    0.0000 C   0  0  1  0  0  0  0  0  0  0  0  0
   -1.3374    2.1442    0.0000 C   0  0  2  0  0  0  0  0  0  0  0  0
   -1.3245    1.3154    0.0000 C   0  0  2  0  0  0  0  0  0  0  0  0
   -0.5986    0.9138    0.0000 C   0  0  1  0  0  0  0  0  0  0  0  0
    0.1144    1.3412    0.0000 O   0  0  0  0  0  0  0  0  0  0  0  0
   -0.5843    0.0890    0.0000 O   0  0  0  0  0  0  0  0  0  0  0  0
    0.1354   -0.3223    0.0000 C   0  0  0  0  0  0  0  0  0  0  0  0
    0.1346   -1.1467    0.0000 C   0  0  0  0  0  0  0  0  0  0  0  0
    0.8503    0.0920    0.0000 C   0  0  0  0  0  0  0  0  0  0  0  0
    1.5647   -0.3257    0.0000 C   0  0  0  0  0  0  0  0  0  0  0  0
    1.5628   -1.1503    0.0000 C   0  0  0  0  0  0  0  0  0  0  0  0
    0.8476   -1.5619    0.0000 C   0  0  0  0  0  0  0  0  0  0  0  0
    0.8464   -2.3825    0.0000 O   0  0  0  0  0  0  0  0  0  0  0  0
    1.5587   -2.7978    0.0000 C   0  0  0  0  0  0  0  0  0  0  0  0
    2.2739   -2.3863    0.0000 C   0  0  0  0  0  0  0  0  0  0  0  0
    2.2769   -1.5595    0.0000 C   0  0  0  0  0  0  0  0  0  0  0  0
    2.9913   -1.1470    0.0000 O   0  0  0  0  0  0  0  0  0  0  0  0
    1.5563   -3.6228    0.0000 O   0  0  0  0  0  0  0  0  0  0  0  0
    2.9873   -2.8006    0.0000 N   0  0  0  0  0  0  0  0  0  0  0  0
    2.9852   -3.6255    0.0000 C   0  0  0  0  0  0  0  0  0  0  0  0
    2.2698   -4.0362    0.0000 O   0  0  0  0  0  0  0  0  0  0  0  0
    3.6987   -4.0397    0.0000 C   0  0  0  0  0  0  0  0  0  0  0  0
    3.6937   -4.8639    0.0000 C   0  0  0  0  0  0  0  0  0  0  0  0
    4.4062   -5.2781    0.0000 C   0  0  0  0  0  0  0  0  0  0  0  0
    5.1227   -4.8673    0.0000 C   0  0  0  0  0  0  0  0  0  0  0  0
    5.1221   -4.0381    0.0000 C   0  0  0  0  0  0  0  0  0  0  0  0
    4.4090   -3.6277    0.0000 C   0  0  0  0  0  0  0  0  0  0  0  0
    0.9227    2.1871    0.0000 C   0  0  0  0  0  0  0  0  0  0  0  0
    0.0844    2.9913    0.0000 C   0  0  0  0  0  0  0  0  0  0  0  0
   -0.6458    3.3945    0.0000 O   0  0  0  0  0  0  0  0  0  0  0  0
    0.0609    3.8201    0.0000 C   0  0  0  0  0  0  0  0  0  0  0  0
   -2.0588    2.5445    0.0000 O   0  0  0  0  0  0  0  0  0  0  0  0
   -2.0318    0.8908    0.0000 O   0  0  0  0  0  0  0  0  0  0  0  0
   -0.5807   -1.5576    0.0000 C   0  0  0  0  0  0  0  0  0  0  0  0
   -2.7531    1.2912    0.0000 C   0  0  0  0  0  0  0  0  0  0  0  0
   -3.4617    0.8657    0.0000 C   0  0  0  0  0  0  0  0  0  0  0  0
   -2.7671    2.1160    0.0000 O   0  0  0  0  0  0  0  0  0  0  0  0
   -4.1063    1.3735    0.0000 N   0  0  0  0  0  0  0  0  0  0  0  0
   -4.7919    0.9147    0.0000 C   0  0  0  0  0  0  0  0  0  0  0  0
   -4.5673    0.1208    0.0000 C   0  0  0  0  0  0  0  0  0  0  0  0
   -3.7430    0.0892    0.0000 C   0  0  0  0  0  0  0  0  0  0  0  0
   -5.5088    1.3291    0.0000 C   0  0  0  0  0  0  0  0  0  0  0  0
    5.8362   -3.6250    0.0000 C   0  0  0  0  0  0  0  0  0  0  0  0
    5.8367   -5.2807    0.0000 N   0  0  0  0  0  0  0  0  0  0  0  0
  9 13  2  0  0  0  0
 21 22  2  0  0  0  0
 11 10  1  0  0  0  0
 21 23  1  0  0  0  0
 11 12  2  0  0  0  0
 23 24  2  0  0  0  0
  3  4  1  0  0  0  0
 24 25  1  0  0  0  0
 12 13  1  0  0  0  0
 25 26  2  0  0  0  0
  4  5  1  0  0  0  0
 26 27  1  0  0  0  0
  5  6  1  0  0  0  0
 27 28  2  0  0  0  0
 28 23  1  0  0  0  0
  1 29  1  0  0  0  0
  5  7  1  1  0  0  0
  1 30  1  0  0  0  0
  2  1  1  0  0  0  0
  2 31  1  1  0  0  0
  7  8  1  0  0  0  0
 31 32  1  0  0  0  0
 12 17  1  0  0  0  0
  3 33  1  6  0  0  0
 13 14  1  0  0  0  0
  4 34  1  6  0  0  0
 14 15  1  0  0  0  0
  9 35  1  0  0  0  0
 15 16  1  0  0  0  0
 34 36  1  0  0  0  0
 16 17  2  0  0  0  0
 36 37  1  0  0  0  0
  8  9  1  0  0  0  0
 36 38  2  0  0  0  0
 37 39  1  0  0  0  0
 17 18  1  0  0  0  0
  1  6  1  0  0  0  0
 15 19  2  0  0  0  0
  3  2  1  0  0  0  0
 39 40  1  0  0  0  0
 40 41  2  0  0  0  0
 41 42  1  0  0  0  0
 42 37  2  0  0  0  0
 16 20  1  0  0  0  0
 40 43  1  0  0  0  0
  8 10  2  0  0  0  0
 27 44  1  0  0  0  0
 20 21  1  0  0  0  0
 26 45  1  0  0  0  0
M  END
> <From> 
www.bindingDB.org

> <BindingDB Reactant_set_id>
50607665

> <Ligand InChI>
InChI=1S/C32H35N3O10/c1-14-13-17(8-10-19(14)33)28(38)35-22-23(36)18-9-12-21(16(3)25(18)43-30(22)40)42-31-26(24(37)27(41-6)32(4,5)45-31)44-29(39)20-11-7-15(2)34-20/h7-13,24,26-27,31,34,36-37H,33H2,1-6H3,(H,35,38)/t24-,26+,27+,31+/m0/s1

> <Ligand InChI Key>
PGIHTKXHNIULIK-FWTOBACQSA-N

> <BindingDB MonomerID>
50330294

> <BindingDB Ligand Name>
(2R,3R,4R,5R)-2-(3-(4-amino-3-methylbenzamido)-4-hydroxy-8-methyl-2-oxo-2H-chromen-7-yloxy)-4-hydroxy-5-methoxy-6,6-dimethyltetrahydro-2H-pyran-3-yl 5-methyl-1H-pyrrole-2-carboxylate::CHEMBL1275898

> <Target Name Assigned by Curator or DataSource>
DNA Gyrase Subunit B

> <Target Source Organism According to Curator or DataSource>
Escherichia coli

> <Ki (nM)>


> <IC50 (nM)>
 784

> <Kd (nM)>


> <EC50 (nM)>


> <kon (M-1-s-1)>


> <koff (s-1)>


> <pH>


> <Temp C>


> <Curation/DataSource>
ChEMBL

> <Article DOI>
10.1128/AAC.01235-07

> <PMID>
18347114

> <PubChem AID>


> <Patent Number>


> <Authors>
Anderle, C; Stieger, M; Burrell, M; Reinelt, S; Maxwell, A; Page, M; Heide, L

> <Institution>
Universit&#228;t T&#252;bingen

> <Link to Ligand in BindingDB>
http://www.bindingdb.org/bind/chemsearch/marvin/MolStructure.jsp?monomerid=50330294

> <Link to Ligand-Target Pair in BindingDB>
http://www.bindingdb.org/jsp/dbsearch/PrimarySearch_ki.jsp?energyterm=kJ/mole&tag=pol&polymerid=2630&target=DNA+Gyrase+Subunit+B&column=ki&startPg=0&Increment=50&submit=Search

> <Link to Ligand-Target Pair in BindingDB>
http://www.bindingdb.org/jsp/dbsearch/PrimarySearch_ki.jsp?energyterm=kJ/mole&tag=r21&monomerid=50330294&enzyme=DNA+Gyrase+Subunit+B&column=ki&startPg=0&Increment=50&submit=Search

> <Ligand HET ID in PDB>


> <PDB ID(s) for Ligand-Target Complex>


> <PubChem CID>
54729439

> <PubChem SID>
123109409

> <ChEBI ID of Ligand>


> <ChEMBL ID of Ligand>
CHEMBL1275898

> <DrugBank ID of Ligand>


> <IUPHAR_GRAC ID of Ligand>


> <KEGG ID of Ligand>


> <ZINC ID of Ligand>
ZINC64453652

> <Number of Protein Chains in Target (>1 implies a multichain complex)>
1

> <BindingDB Target Chain Sequence>
MSNSYDSSSIKVLKGLDAVRKRPGMYIGDTDDGTGLHHMVFEVVDNAIDEALAGHCKEII
VTIHADNSVSVQDDGRGIPTGIHPEEGVSAAEVIMTVLHAGGKFDDNSYKVSGGLHGVGV
SVVNALSQKLELVIQREGKIHRQIYEHGVPQAPLAVTGETEKTGTMVRFWPSLETFTNVT
EFEYEILAKRLRELSFLNSGVSIRLRDKRDGKEDHFHYEGGIKAFVEYLNKNKTPIHPNI
FYFSTEKDGIGVEVALQWNDGFQENIYCFTNNIPQRDGGTHLAGFRAAMTRTLNAYMDKE
GYSKKAKVSATGDDAREGLIAVVSVKVPDPKFSSQTKDKLVSSEVKSAVEQQMNELLAEY
LLENPTDAKIVVGKIIDAARAREAARRAREMTRRKGALDLAGLPGKLADCQERDPALSEL
YLVEGDSAGGSAKQGRNRKNQAILPLKGKILNVEKARFDKMLSSQEVATLITALGCGIGR
DEYNPDKLRYHSIIIMTDADVDGSHIRTLLLTFFYRQMPEIVERGHVYIAQPPLYKVKKG
KQEQYIKDDEAMDQYQISIALDGATLHTNASAPALAGEALEKLVSEYNATQKMINRMERR
YPKAMLKELIYQPTLTEADLSDEQTVTRWVNALVSELNDKEQHGSQWKFDVHTNAEQNLF
EPIVRVRTHGVDTDYPLDHEFITGGEYRRICTLGEKLRGLLEEDAFIERGERRQPVASFE
QALDWLVKESRRGLSIQRYKGLGEMNPEQLWETTMDPESRRMLRVTVKDAIAADQLFTTL
MGDAVEPRRAFIEENALKAANIDI

> <PDB ID(s) of Target Chain>
1KZN,3G7E,3NUH,4DUH,4HYP,4KFG,4PRV,4PRX,4PU9,4WUB,4WUC,4WUD,4XTJ,4ZVI,5L3J,5MMN,5MMO,5MMP,5Z4H,5Z4O,5Z9B,5Z9E,5Z9F,5Z9L,5Z9M,5Z9N,5Z9Q,6ENG,6F86,6F8J,6F94,6F96

> <UniProt (SwissProt) Recommended Name of Target Chain>
DNA gyrase subunit B

> <UniProt (SwissProt) Entry Name of Target Chain>
GYRB_ECOLI

> <UniProt (SwissProt) Primary ID of Target Chain>
P0AES6

> <UniProt (SwissProt) Secondary ID(s) of Target Chain>
O08438,P06982,Q2M811

> <UniProt (SwissProt) Alternative ID(s) of Target Chain>


> <UniProt (TrEMBL) Submitted Name of Target Chain>


> <UniProt (TrEMBL) Entry Name of Target Chain>


> <UniProt (TrEMBL) Primary ID of Target Chain>


> <UniProt (TrEMBL) Secondary ID(s) of Target Chain>


> <UniProt (TrEMBL) Alternative ID(s) of Target Chain>


$$$$

  SciTegic09261414462D

 21 22  0  0  0  0            999 V2000
   23.5114  -14.6558    0.0000 C   0  0
   23.5103  -15.4753    0.0000 C   0  0
   24.2183  -15.8843    0.0000 C   0  0
   24.9280  -15.4748    0.0000 C   0  0
   24.9251  -14.6522    0.0000 C   0  0
   24.2165  -14.2469    0.0000 N   0  0
   22.8036  -14.2473    0.0000 N   0  0
   22.0960  -14.6561    0.0000 C   0  0
   21.3882  -14.2477    0.0000 N   0  0
   22.0962  -15.4733    0.0000 O   0  0
   20.6806  -14.6564    0.0000 C   0  0
   19.9728  -14.2480    0.0000 C   0  0
   25.6328  -15.8815    0.0000 C   0  0
   25.6327  -16.6998    0.0000 C   0  0
   26.3403  -17.1072    0.0000 N   0  0
   27.0483  -16.6975    0.0000 C   0  0
   27.0444  -15.8761    0.0000 C   0  0
   26.3363  -15.4724    0.0000 C   0  0
   27.7500  -15.4639    0.0000 C   0  0
   28.4598  -15.8689    0.0000 O   0  0
   27.7458  -14.6467    0.0000 O   0  0
  1  2  2  0
  2  3  1  0
  3  4  2  0
  4  5  1  0
  5  6  2  0
  6  1  1  0
  1  7  1  0
  7  8  1  0
  8  9  1  0
  8 10  2  0
  9 11  1  0
 11 12  1  0
 13 14  2  0
 14 15  1  0
 15 16  2  0
 16 17  1  0
 17 18  2  0
 18 13  1  0
  4 13  1  0
 17 19  1  0
 19 20  1  0
 19 21  2  0
M  END
> <From> 
www.bindingDB.org

> <BindingDB Reactant_set_id>
50083258

> <Ligand InChI>
InChI=1S/C14H14N4O3/c1-2-16-14(21)18-12-4-3-9(8-17-12)10-5-11(13(19)20)7-15-6-10/h3-8H,2H2,1H3,(H,19,20)(H2,16,17,18,21)

> <Ligand InChI Key>
COHPPYYIBHNRJA-UHFFFAOYSA-N

> <BindingDB MonomerID>
50006554

> <BindingDB Ligand Name>
CHEMBL3235074

> <Target Name Assigned by Curator or DataSource>
DNA Gyrase Subunit B

> <Target Source Organism According to Curator or DataSource>
Staphylococcus aureus

> <Ki (nM)>


> <IC50 (nM)>
 850

> <Kd (nM)>


> <EC50 (nM)>


> <kon (M-1-s-1)>


> <koff (s-1)>


> <pH>


> <Temp C>


> <Curation/DataSource>
ChEMBL

> <Article DOI>
10.1021/jm401208b

> <PMID>
24098982

> <PubChem AID>


> <Patent Number>


> <Authors>
Basarab, GS; Basarab, GS; Boriack-Sjodin, PA; Boriack-Sjodin, PA; Illingworth, R; Illingworth, R; Manchester, JI; Manchester, JI; Dangel, B; Dangel, B; Sriram, S; Sriram, S

> <Institution>
AstraZeneca R&amp;D Boston

> <Link to Ligand in BindingDB>
http://www.bindingdb.org/bind/chemsearch/marvin/MolStructure.jsp?monomerid=50006554

> <Link to Ligand-Target Pair in BindingDB>
http://www.bindingdb.org/jsp/dbsearch/PrimarySearch_ki.jsp?energyterm=kJ/mole&tag=pol&polymerid=2626&target=DNA+Gyrase+Subunit+B&column=ki&startPg=0&Increment=50&submit=Search

> <Link to Ligand-Target Pair in BindingDB>
http://www.bindingdb.org/jsp/dbsearch/PrimarySearch_ki.jsp?energyterm=kJ/mole&tag=r21&monomerid=50006554&enzyme=DNA+Gyrase+Subunit+B&column=ki&startPg=0&Increment=50&submit=Search

> <Ligand HET ID in PDB>


> <PDB ID(s) for Ligand-Target Complex>


> <PubChem CID>
59208477

> <PubChem SID>
103919955

> <ChEBI ID of Ligand>


> <ChEMBL ID of Ligand>
CHEMBL3235074

> <DrugBank ID of Ligand>


> <IUPHAR_GRAC ID of Ligand>


> <KEGG ID of Ligand>


> <ZINC ID of Ligand>
ZINC26377009

> <Number of Protein Chains in Target (>1 implies a multichain complex)>
1

> <BindingDB Target Chain Sequence>
MVTALSDVNNTDNYGAGQIQVLEGLEAVRKRPGMYIGSTSERGLHHLVWEIVDNSIDEALAGYANQIEVVIEKDNWIKVTDNGRGIPVDIQEKMGRPAVEVILTVLHAGGKFGGGGYKVSGGLHGVGSSVVNALSQDLEVYVHRNETIYHQAYKKGVPQFDLKEVGTTDKTGTVIRFKADGEIFTETTVYNYETLQQRIRELAFLNKGIQITLRDERDEENVREDSYHYEGGIKSYVELLNENKEPIHDEPIYIHQSKDDIEVEIAIQYNSGYATNLLTYANNIHTYEGGTHEDGFKRALTRVLNSYGLSSKIMKEEKDRLSGEDTREGMTAIISIKHGDPQFEGQTKTKLGNSEVRQVVDKLFSEHFERFLYENPQVARTVVEKGIMAARARVAAKKAREVTRRKSALDVASLPGKLADCSSKSPEECEIFLVEGDSAGGSTKSGRDSRTQAILPLRGKILNVEKARLDRILNNNEIRQMITAFGTGIGGDFDLAKARYHKIVIMTDADVDGAHIRTLLLTFFYRFMRPLIEAGYVYIAQPPLYKLTQGKQKYYVYNDRELDKLKSELNPTPKWSIARYKGLGEMNADQLWETTMNPEHRALLQVKLEDAIEADQTFEMLMGDVVENRRQFIEDNAVYANLDF

> <PDB ID(s) of Target Chain>


> <UniProt (SwissProt) Recommended Name of Target Chain>
DNA gyrase subunit B

> <UniProt (SwissProt) Entry Name of Target Chain>
GYRB_STAAU

> <UniProt (SwissProt) Primary ID of Target Chain>
P0A0K8

> <UniProt (SwissProt) Secondary ID(s) of Target Chain>
P20832

> <UniProt (SwissProt) Alternative ID(s) of Target Chain>


> <UniProt (TrEMBL) Submitted Name of Target Chain>


> <UniProt (TrEMBL) Entry Name of Target Chain>


> <UniProt (TrEMBL) Primary ID of Target Chain>


> <UniProt (TrEMBL) Secondary ID(s) of Target Chain>


> <UniProt (TrEMBL) Alternative ID(s) of Target Chain>


$$$$

  SciTegic04201612532D

 34 37  0  0  0  0            999 V2000
   -1.2964    1.4973    0.0000 N   0  0
   -2.6111    0.7486    0.0000 C   0  0
   -2.6111   -0.7486    0.0000 C   0  0
   -1.2964   -1.4973    0.0000 C   0  0
    0.0000   -0.7486    0.0000 C   0  0
    1.2964   -1.4973    0.0000 C   0  0
    2.5929   -0.7486    0.0000 C   0  0
    2.5929    0.7486    0.0000 C   0  0
    1.2964    1.4973    0.0000 C   0  0
    0.0000    0.7486    0.0000 C   0  0
   -3.9122   -1.4966    0.0000 C   0  0
   -4.9506   -0.8952    0.0000 O   0  0
   -1.2907   -2.9981    0.0000 N   0  0
   -2.5870   -3.7544    0.0000 C   0  0
   -2.5835   -5.2544    0.0000 C   0  0
   -3.8807   -6.0076    0.0000 C   0  0
   -5.1815   -5.2608    0.0000 C   0  0
   -5.1852   -3.7608    0.0000 C   0  0
   -3.8880   -3.0076    0.0000 C   0  0
   -6.4810   -6.0117    0.0000 O   0  0
   -7.7815   -5.2626    0.0000 C   0  0
   -9.0810   -6.0135    0.0000 C   0  0
  -10.3815   -5.2644    0.0000 C   0  0
  -14.2755   -7.5217    0.0000 N   0  0
  -14.2791   -6.0217    0.0000 C   0  0
  -12.9819   -5.2686    0.0000 C   0  0
  -11.6810   -6.0154    0.0000 N   0  0
  -11.6774   -7.5154    0.0000 C   0  0
  -12.9746   -8.2686    0.0000 C   0  0
   -3.9138   -2.4966    0.0000 O   0  0
  -15.5719   -8.2779    0.0000 C   0  0
  -15.5672   -9.4779    0.0000 C   0  0
    3.8942   -1.4964    0.0000 O   0  0
    4.9326   -0.8949    0.0000 C   0  0
  1  2  2  0
  2  3  1  0
  3  4  2  0
  4  5  1  0
  5  6  2  0
  6  7  1  0
  7  8  2  0
  8  9  1  0
  9 10  2  0
  1 10  1  0
  5 10  1  0
 11 12  2  0
  3 11  1  0
 14 15  1  0
 15 16  2  0
 16 17  1  0
 17 18  2  0
 18 19  1  0
 14 19  2  0
 21 22  1  0
 22 23  1  0
 20 21  1  0
 24 25  1  0
 25 26  1  0
 26 27  1  0
 27 28  1  0
 28 29  1  0
 24 29  1  0
 23 27  1  0
 17 20  1  0
 13 14  1  0
  4 13  1  0
 11 30  1  0
 24 31  1  0
 31 32  1  0
 33 34  1  0
  7 33  1  0
M  END
> <From> 
www.bindingDB.org

> <BindingDB Reactant_set_id>
50426795

> <Ligand InChI>
InChI=1S/C26H32N4O4/c1-3-29-12-14-30(15-13-29)11-4-16-34-20-7-5-19(6-8-20)28-25-22-17-21(33-2)9-10-24(22)27-18-23(25)26(31)32/h5-10,17-18H,3-4,11-16H2,1-2H3,(H,27,28)(H,31,32)

> <Ligand InChI Key>
ARTFDNBCARRITC-UHFFFAOYSA-N

> <BindingDB MonomerID>
50126842

> <BindingDB Ligand Name>
CHEMBL3628523

> <Target Name Assigned by Curator or DataSource>
DNA gyrase subunit B

> <Target Source Organism According to Curator or DataSource>


> <Ki (nM)>


> <IC50 (nM)>
 860

> <Kd (nM)>


> <EC50 (nM)>


> <kon (M-1-s-1)>


> <koff (s-1)>


> <pH>


> <Temp C>


> <Curation/DataSource>
ChEMBL

> <Article DOI>
10.1016/j.ejmech.2015.06.032

> <PMID>
26318054

> <PubChem AID>


> <Patent Number>


> <Authors>
Medapi, B; Suryadevara, P; Renuka, J; Sridevi, JP; Yogeeswari, P; Sriram, D

> <Institution>
Birla Institute of Technology&amp;Science

> <Link to Ligand in BindingDB>
http://www.bindingdb.org/bind/chemsearch/marvin/MolStructure.jsp?monomerid=50126842

> <Link to Ligand-Target Pair in BindingDB>
http://www.bindingdb.org/jsp/dbsearch/PrimarySearch_ki.jsp?energyterm=kJ/mole&tag=pol&polymerid=50006452&target=DNA+gyrase+subunit+B&column=ki&startPg=0&Increment=50&submit=Search

> <Link to Ligand-Target Pair in BindingDB>
http://www.bindingdb.org/jsp/dbsearch/PrimarySearch_ki.jsp?energyterm=kJ/mole&tag=r21&monomerid=50126842&enzyme=DNA+gyrase+subunit+B&column=ki&startPg=0&Increment=50&submit=Search

> <Ligand HET ID in PDB>


> <PDB ID(s) for Ligand-Target Complex>


> <PubChem CID>
122193524

> <PubChem SID>
104018910

> <ChEBI ID of Ligand>


> <ChEMBL ID of Ligand>


> <DrugBank ID of Ligand>


> <IUPHAR_GRAC ID of Ligand>


> <KEGG ID of Ligand>


> <ZINC ID of Ligand>
ZINC29251745

> <Number of Protein Chains in Target (>1 implies a multichain complex)>
1

> <BindingDB Target Chain Sequence>
MAAQKNNAPKEYGADSITILEGLEAVRKRPGMYIGSTGERGLHHLIWEVVDNAVDEAMAGFATRVDVKIHADGSVEVRDDGRGIPVEMHATGMPTIDVVMTQLHAGGKFDGETYAVSGGLHGVGVSVVNALSTRLEATVLRDGYEWFQYYDRSVPGKLKQGGETKETGTTIRFWADPEIFETTDYNFETVARRLQEMAFLNKGLTIELTDERVTAEEVVDDVVKDTAEAPKTADEKAAEATGPSKVKHRVFHYPGGLVDYVKHINRTKTPIQQSIIDFDGKGPGHEVEIAMQWNAGYSESVHTFANTINTHEGGTHEEGFRAALTSVVNRYAKDKKLLKDKDPNLTGDDIREGLAAVISVKVAEPQFEGQTKTKLGNTEVKSFVQKICNEQLQHWFEANPAEAKTVVNKAVSSAQARIAARKARELVRRKSATDIGGLPGKLADCRSTDPSKSELYVVEGDSAGGSAKSGRDSMFQAILPLRGKIINVEKARIDRVLKNTEVQSIITALGTGIHDEFDISKLRYHKIVLMADADVDGQHISTLLLTLLFRFMKPLVENGHIFLAQPPLYKLKWQRSEPEFAYSDRERDGLLEAGRAAGKKINVDDGIQRYKGLGEMDAKELWETTMDPSVRVLRQVTLDDAAAADELFSILMGEDVEARRSFITRNAKDVRFLDV

> <PDB ID(s) of Target Chain>
4BAE

> <UniProt (SwissProt) Recommended Name of Target Chain>
DNA gyrase subunit B

> <UniProt (SwissProt) Entry Name of Target Chain>
GYRB_MYCSM

> <UniProt (SwissProt) Primary ID of Target Chain>
P0C559

> <UniProt (SwissProt) Secondary ID(s) of Target Chain>
P48355,Q59555

> <UniProt (SwissProt) Alternative ID(s) of Target Chain>


> <UniProt (TrEMBL) Submitted Name of Target Chain>


> <UniProt (TrEMBL) Entry Name of Target Chain>


> <UniProt (TrEMBL) Primary ID of Target Chain>


> <UniProt (TrEMBL) Secondary ID(s) of Target Chain>


> <UniProt (TrEMBL) Alternative ID(s) of Target Chain>


$$$$

  Mrv0541 04171609262D          

 23 25  0  0  0  0            999 V2000
    0.7145   -0.4125    0.0000 C   0  0  0  0  0  0  0  0  0  0  0  0
    0.7145    0.4125    0.0000 C   0  0  0  0  0  0  0  0  0  0  0  0
    0.0000    0.8250    0.0000 C   0  0  0  0  0  0  0  0  0  0  0  0
   -0.7145    0.4125    0.0000 C   0  0  0  0  0  0  0  0  0  0  0  0
   -0.7145   -0.4125    0.0000 C   0  0  0  0  0  0  0  0  0  0  0  0
    0.0000   -0.8250    0.0000 C   0  0  0  0  0  0  0  0  0  0  0  0
   -1.4293   -0.8252    0.0000 C   0  0  0  0  0  0  0  0  0  0  0  0
   -2.1731   -0.4848    0.0000 S   0  0  0  0  0  0  0  0  0  0  0  0
   -2.7242   -1.0988    0.0000 C   0  0  0  0  0  0  0  0  0  0  0  0
   -2.3106   -1.8127    0.0000 C   0  0  0  0  0  0  0  0  0  0  0  0
   -1.5039   -1.6399    0.0000 C   0  0  0  0  0  0  0  0  0  0  0  0
   -2.6430   -2.5667    0.0000 C   0  0  0  0  0  0  0  0  0  0  0  0
   -2.2534   -3.0995    0.0000 O   0  0  0  0  0  0  0  0  0  0  0  0
   -3.2991   -2.6378    0.0000 N   0  0  0  0  0  0  0  0  0  0  0  0
   -3.5437   -1.0123    0.0000 N   0  0  0  0  0  0  0  0  0  0  0  0
   -3.8796   -0.2582    0.0000 C   0  0  0  0  0  0  0  0  0  0  0  0
   -4.7005   -0.1715    0.0000 C   0  0  0  0  0  0  0  0  0  0  0  0
   -3.4916    0.2757    0.0000 O   0  0  0  0  0  0  0  0  0  0  0  0
   -5.0373    0.5816    0.0000 C   0  0  0  0  0  0  0  0  0  0  0  0
   -5.8579    0.6666    0.0000 C   0  0  0  0  0  0  0  0  0  0  0  0
   -6.3418   -0.0017    0.0000 C   0  0  0  0  0  0  0  0  0  0  0  0
   -6.0050   -0.7548    0.0000 C   0  0  0  0  0  0  0  0  0  0  0  0
   -5.1844   -0.8398    0.0000 C   0  0  0  0  0  0  0  0  0  0  0  0
  1  2  4  0  0  0  0
  2  3  4  0  0  0  0
  3  4  4  0  0  0  0
  4  5  4  0  0  0  0
  5  6  4  0  0  0  0
  6  1  4  0  0  0  0
  7  8  4  0  0  0  0
  8  9  4  0  0  0  0
  9 10  4  0  0  0  0
 10 11  4  0  0  0  0
 11  7  4  0  0  0  0
  5  7  1  0  0  0  0
 10 12  1  0  0  0  0
 12 13  2  0  0  0  0
 12 14  1  0  0  0  0
  9 15  1  0  0  0  0
 15 16  1  0  0  0  0
 16 17  1  0  0  0  0
 16 18  2  0  0  0  0
 17 19  4  0  0  0  0
 19 20  4  0  0  0  0
 20 21  4  0  0  0  0
 21 22  4  0  0  0  0
 22 23  4  0  0  0  0
 23 17  4  0  0  0  0
M  END
> <From> 
www.bindingDB.org

> <BindingDB Reactant_set_id>
50302346

> <Ligand InChI>
InChI=1S/C18H14N2O2S/c19-16(21)14-11-15(12-7-3-1-4-8-12)23-18(14)20-17(22)13-9-5-2-6-10-13/h1-11H,(H2,19,21)(H,20,22)

> <Ligand InChI Key>
KCZRFLUSSWJMMU-UHFFFAOYSA-N

> <BindingDB MonomerID>
50066107

> <BindingDB Ligand Name>
CHEMBL3402951

> <Target Name Assigned by Curator or DataSource>
DNA gyrase subunit B

> <Target Source Organism According to Curator or DataSource>


> <Ki (nM)>


> <IC50 (nM)>
 860

> <Kd (nM)>


> <EC50 (nM)>


> <kon (M-1-s-1)>


> <koff (s-1)>


> <pH>


> <Temp C>
25.00

> <Curation/DataSource>
ChEMBL

> <Article DOI>
10.1016/j.bmc.2015.02.032

> <PMID>
25766629

> <PubChem AID>


> <Patent Number>


> <Authors>
Saxena, S; Samala, G; Renuka, J; Sridevi, JP; Yogeeswari, P; Sriram, D

> <Institution>
Birla Institute of Technology&amp; Science-Pilani

> <Link to Ligand in BindingDB>
http://www.bindingdb.org/bind/chemsearch/marvin/MolStructure.jsp?monomerid=50066107

> <Link to Ligand-Target Pair in BindingDB>
http://www.bindingdb.org/jsp/dbsearch/PrimarySearch_ki.jsp?energyterm=kJ/mole&tag=pol&polymerid=50006452&target=DNA+gyrase+subunit+B&column=ki&startPg=0&Increment=50&submit=Search

> <Link to Ligand-Target Pair in BindingDB>
http://www.bindingdb.org/jsp/dbsearch/PrimarySearch_ki.jsp?energyterm=kJ/mole&tag=r21&monomerid=50066107&enzyme=DNA+gyrase+subunit+B&column=ki&startPg=0&Increment=50&submit=Search

> <Ligand HET ID in PDB>


> <PDB ID(s) for Ligand-Target Complex>


> <PubChem CID>
15920759

> <PubChem SID>
313071626

> <ChEBI ID of Ligand>


> <ChEMBL ID of Ligand>


> <DrugBank ID of Ligand>


> <IUPHAR_GRAC ID of Ligand>


> <KEGG ID of Ligand>


> <ZINC ID of Ligand>


> <Number of Protein Chains in Target (>1 implies a multichain complex)>
1

> <BindingDB Target Chain Sequence>
MAAQKNNAPKEYGADSITILEGLEAVRKRPGMYIGSTGERGLHHLIWEVVDNAVDEAMAGFATRVDVKIHADGSVEVRDDGRGIPVEMHATGMPTIDVVMTQLHAGGKFDGETYAVSGGLHGVGVSVVNALSTRLEATVLRDGYEWFQYYDRSVPGKLKQGGETKETGTTIRFWADPEIFETTDYNFETVARRLQEMAFLNKGLTIELTDERVTAEEVVDDVVKDTAEAPKTADEKAAEATGPSKVKHRVFHYPGGLVDYVKHINRTKTPIQQSIIDFDGKGPGHEVEIAMQWNAGYSESVHTFANTINTHEGGTHEEGFRAALTSVVNRYAKDKKLLKDKDPNLTGDDIREGLAAVISVKVAEPQFEGQTKTKLGNTEVKSFVQKICNEQLQHWFEANPAEAKTVVNKAVSSAQARIAARKARELVRRKSATDIGGLPGKLADCRSTDPSKSELYVVEGDSAGGSAKSGRDSMFQAILPLRGKIINVEKARIDRVLKNTEVQSIITALGTGIHDEFDISKLRYHKIVLMADADVDGQHISTLLLTLLFRFMKPLVENGHIFLAQPPLYKLKWQRSEPEFAYSDRERDGLLEAGRAAGKKINVDDGIQRYKGLGEMDAKELWETTMDPSVRVLRQVTLDDAAAADELFSILMGEDVEARRSFITRNAKDVRFLDV

> <PDB ID(s) of Target Chain>
4BAE

> <UniProt (SwissProt) Recommended Name of Target Chain>
DNA gyrase subunit B

> <UniProt (SwissProt) Entry Name of Target Chain>
GYRB_MYCSM

> <UniProt (SwissProt) Primary ID of Target Chain>
P0C559

> <UniProt (SwissProt) Secondary ID(s) of Target Chain>
P48355,Q59555

> <UniProt (SwissProt) Alternative ID(s) of Target Chain>


> <UniProt (TrEMBL) Submitted Name of Target Chain>


> <UniProt (TrEMBL) Entry Name of Target Chain>


> <UniProt (TrEMBL) Primary ID of Target Chain>


> <UniProt (TrEMBL) Secondary ID(s) of Target Chain>


> <UniProt (TrEMBL) Alternative ID(s) of Target Chain>


$$$$

  SciTegic12211701052D

 28 30  0  0  0  0            999 V2000
   11.7075   -7.3753    0.0000 O   0  0
   12.1161   -8.0802    0.0000 C   0  0
   12.9333   -8.0802    0.0000 C   0  0
   13.3418   -7.3753    0.0000 C   0  0
   14.1590   -7.3753    0.0000 C   0  0
   14.5676   -8.0802    0.0000 O   0  0
   14.1590   -8.7893    0.0000 C   0  0
   14.5676   -6.6662    0.0000 O   0  0
   11.7075   -8.7893    0.0000 N   0  0
   10.8903   -8.7893    0.0000 C   0  0
   10.4060   -8.1261    0.0000 N   0  0
    9.6329   -8.3807    0.0000 C   0  0
    8.9238   -7.9721    0.0000 C   0  0
    8.2147   -8.3807    0.0000 C   0  0
    8.2147   -9.1979    0.0000 C   0  0
    7.5098   -9.6065    0.0000 N   0  0
    6.8007   -9.1979    0.0000 C   0  0
    6.8007   -8.3807    0.0000 C   0  0
    7.4598   -7.9006    0.0000 C   0  0
    7.2093   -7.1234    0.0000 C   0  0
    7.6894   -6.4601    0.0000 Br  0  0
    6.3921   -7.1234    0.0000 C   0  0
    5.9119   -6.4601    0.0000 Br  0  0
    6.1374   -7.9006    0.0000 N   0  0
    6.0916   -9.6065    0.0000 O   0  0
    8.9238   -9.6065    0.0000 C   0  0
    9.6329   -9.1979    0.0000 C   0  0
   10.4060   -9.4485    0.0000 S   0  0
  1  2  2  0
  2  3  1  0
  3  4  1  0
  4  5  1  0
  5  6  1  0
  6  7  1  0
  5  8  2  0
  2  9  1  0
  9 10  1  0
 10 11  2  0
 11 12  1  0
 12 13  2  0
 13 14  1  0
 14 15  2  0
 15 16  1  0
 16 17  1  0
 17 18  1  0
 18 19  2  0
 19 20  1  0
 20 21  1  0
 20 22  2  0
 22 23  1  0
 22 24  1  0
 18 24  1  0
 17 25  2  0
 15 26  1  0
 26 27  2  0
 12 27  1  0
 27 28  1  0
 10 28  1  0
M  END
> <From> 
www.bindingDB.org

> <BindingDB Reactant_set_id>
50524123

> <Ligand InChI>
InChI=1S/C17H14Br2N4O4S/c1-27-14(25)5-4-13(24)23-17-22-10-3-2-8(6-12(10)28-17)20-16(26)11-7-9(18)15(19)21-11/h2-3,6-7,21H,4-5H2,1H3,(H,20,26)(H,22,23,24)

> <Ligand InChI Key>
WOVXWDVYBWMWRN-UHFFFAOYSA-N

> <BindingDB MonomerID>
50198241

> <BindingDB Ligand Name>
CHEMBL3904782

> <Target Name Assigned by Curator or DataSource>
DNA Gyrase Subunit B

> <Target Source Organism According to Curator or DataSource>
Escherichia coli

> <Ki (nM)>


> <IC50 (nM)>
 870

> <Kd (nM)>


> <EC50 (nM)>


> <kon (M-1-s-1)>


> <koff (s-1)>


> <pH>


> <Temp C>


> <Curation/DataSource>
ChEMBL

> <Article DOI>
10.1021/acs.jmedchem.6b00864

> <PMID>
27541007

> <PubChem AID>


> <Patent Number>


> <Authors>
Gjorgjieva, M; Tomaic, T; Barancokova, M; Katsamakas, S; Ila, J; Tammela, P; Peterlin Maic, L; Kikelj, D

> <Institution>
University of Ljubljana

> <Link to Ligand in BindingDB>
http://www.bindingdb.org/bind/chemsearch/marvin/MolStructure.jsp?monomerid=50198241

> <Link to Ligand-Target Pair in BindingDB>
http://www.bindingdb.org/jsp/dbsearch/PrimarySearch_ki.jsp?energyterm=kJ/mole&tag=pol&polymerid=2630&target=DNA+Gyrase+Subunit+B&column=ki&startPg=0&Increment=50&submit=Search

> <Link to Ligand-Target Pair in BindingDB>
http://www.bindingdb.org/jsp/dbsearch/PrimarySearch_ki.jsp?energyterm=kJ/mole&tag=r21&monomerid=50198241&enzyme=DNA+Gyrase+Subunit+B&column=ki&startPg=0&Increment=50&submit=Search

> <Ligand HET ID in PDB>


> <PDB ID(s) for Ligand-Target Complex>


> <PubChem CID>
134135439

> <PubChem SID>
375978193

> <ChEBI ID of Ligand>


> <ChEMBL ID of Ligand>


> <DrugBank ID of Ligand>


> <IUPHAR_GRAC ID of Ligand>


> <KEGG ID of Ligand>


> <ZINC ID of Ligand>


> <Number of Protein Chains in Target (>1 implies a multichain complex)>
1

> <BindingDB Target Chain Sequence>
MSNSYDSSSIKVLKGLDAVRKRPGMYIGDTDDGTGLHHMVFEVVDNAIDEALAGHCKEII
VTIHADNSVSVQDDGRGIPTGIHPEEGVSAAEVIMTVLHAGGKFDDNSYKVSGGLHGVGV
SVVNALSQKLELVIQREGKIHRQIYEHGVPQAPLAVTGETEKTGTMVRFWPSLETFTNVT
EFEYEILAKRLRELSFLNSGVSIRLRDKRDGKEDHFHYEGGIKAFVEYLNKNKTPIHPNI
FYFSTEKDGIGVEVALQWNDGFQENIYCFTNNIPQRDGGTHLAGFRAAMTRTLNAYMDKE
GYSKKAKVSATGDDAREGLIAVVSVKVPDPKFSSQTKDKLVSSEVKSAVEQQMNELLAEY
LLENPTDAKIVVGKIIDAARAREAARRAREMTRRKGALDLAGLPGKLADCQERDPALSEL
YLVEGDSAGGSAKQGRNRKNQAILPLKGKILNVEKARFDKMLSSQEVATLITALGCGIGR
DEYNPDKLRYHSIIIMTDADVDGSHIRTLLLTFFYRQMPEIVERGHVYIAQPPLYKVKKG
KQEQYIKDDEAMDQYQISIALDGATLHTNASAPALAGEALEKLVSEYNATQKMINRMERR
YPKAMLKELIYQPTLTEADLSDEQTVTRWVNALVSELNDKEQHGSQWKFDVHTNAEQNLF
EPIVRVRTHGVDTDYPLDHEFITGGEYRRICTLGEKLRGLLEEDAFIERGERRQPVASFE
QALDWLVKESRRGLSIQRYKGLGEMNPEQLWETTMDPESRRMLRVTVKDAIAADQLFTTL
MGDAVEPRRAFIEENALKAANIDI

> <PDB ID(s) of Target Chain>
1KZN,3G7E,3NUH,4DUH,4HYP,4KFG,4PRV,4PRX,4PU9,4WUB,4WUC,4WUD,4XTJ,4ZVI,5L3J,5MMN,5MMO,5MMP,5Z4H,5Z4O,5Z9B,5Z9E,5Z9F,5Z9L,5Z9M,5Z9N,5Z9Q,6ENG,6F86,6F8J,6F94,6F96

> <UniProt (SwissProt) Recommended Name of Target Chain>
DNA gyrase subunit B

> <UniProt (SwissProt) Entry Name of Target Chain>
GYRB_ECOLI

> <UniProt (SwissProt) Primary ID of Target Chain>
P0AES6

> <UniProt (SwissProt) Secondary ID(s) of Target Chain>
O08438,P06982,Q2M811

> <UniProt (SwissProt) Alternative ID(s) of Target Chain>


> <UniProt (TrEMBL) Submitted Name of Target Chain>


> <UniProt (TrEMBL) Entry Name of Target Chain>


> <UniProt (TrEMBL) Primary ID of Target Chain>


> <UniProt (TrEMBL) Secondary ID(s) of Target Chain>


> <UniProt (TrEMBL) Alternative ID(s) of Target Chain>


$$$$

  SciTegic09261414462D

 21 22  0  0  0  0            999 V2000
   14.6420  -14.1646    0.0000 C   0  0
   14.6408  -14.9841    0.0000 C   0  0
   15.3489  -15.3931    0.0000 C   0  0
   16.0586  -14.9837    0.0000 C   0  0
   16.0557  -14.1610    0.0000 C   0  0
   15.3471  -13.7557    0.0000 N   0  0
   13.9342  -13.7562    0.0000 N   0  0
   13.2266  -14.1649    0.0000 C   0  0
   12.5188  -13.7565    0.0000 N   0  0
   13.2268  -14.9821    0.0000 O   0  0
   11.8112  -14.1653    0.0000 C   0  0
   11.1033  -13.7569    0.0000 C   0  0
   16.7634  -15.3904    0.0000 C   0  0
   16.7633  -16.2087    0.0000 C   0  0
   17.4708  -16.6161    0.0000 C   0  0
   18.1789  -16.2063    0.0000 C   0  0
   18.1750  -15.3849    0.0000 C   0  0
   17.4669  -14.9812    0.0000 C   0  0
   18.8821  -16.6121    0.0000 C   0  0
   18.8823  -17.4293    0.0000 O   0  0
   19.5897  -16.2033    0.0000 O   0  0
  1  2  2  0
  2  3  1  0
  3  4  2  0
  4  5  1  0
  5  6  2  0
  6  1  1  0
  1  7  1  0
  7  8  1  0
  8  9  1  0
  8 10  2  0
  9 11  1  0
 11 12  1  0
 13 14  2  0
 14 15  1  0
 15 16  2  0
 16 17  1  0
 17 18  2  0
 18 13  1  0
  4 13  1  0
 16 19  1  0
 19 20  2  0
 19 21  1  0
M  END
> <From> 
www.bindingDB.org

> <BindingDB Reactant_set_id>
50083257

> <Ligand InChI>
InChI=1S/C15H15N3O3/c1-2-16-15(21)18-13-8-7-12(9-17-13)10-3-5-11(6-4-10)14(19)20/h3-9H,2H2,1H3,(H,19,20)(H2,16,17,18,21)

> <Ligand InChI Key>
YEKQJMWWLRXAAB-UHFFFAOYSA-N

> <BindingDB MonomerID>
50006553

> <BindingDB Ligand Name>
CHEMBL3235073

> <Target Name Assigned by Curator or DataSource>
DNA Gyrase Subunit B

> <Target Source Organism According to Curator or DataSource>
Staphylococcus aureus

> <Ki (nM)>


> <IC50 (nM)>
 880

> <Kd (nM)>


> <EC50 (nM)>


> <kon (M-1-s-1)>


> <koff (s-1)>


> <pH>


> <Temp C>


> <Curation/DataSource>
ChEMBL

> <Article DOI>
10.1021/jm401208b

> <PMID>
24098982

> <PubChem AID>


> <Patent Number>


> <Authors>
Basarab, GS; Basarab, GS; Boriack-Sjodin, PA; Boriack-Sjodin, PA; Illingworth, R; Illingworth, R; Manchester, JI; Manchester, JI; Dangel, B; Dangel, B; Sriram, S; Sriram, S

> <Institution>
AstraZeneca R&amp;D Boston

> <Link to Ligand in BindingDB>
http://www.bindingdb.org/bind/chemsearch/marvin/MolStructure.jsp?monomerid=50006553

> <Link to Ligand-Target Pair in BindingDB>
http://www.bindingdb.org/jsp/dbsearch/PrimarySearch_ki.jsp?energyterm=kJ/mole&tag=pol&polymerid=2626&target=DNA+Gyrase+Subunit+B&column=ki&startPg=0&Increment=50&submit=Search

> <Link to Ligand-Target Pair in BindingDB>
http://www.bindingdb.org/jsp/dbsearch/PrimarySearch_ki.jsp?energyterm=kJ/mole&tag=r21&monomerid=50006553&enzyme=DNA+Gyrase+Subunit+B&column=ki&startPg=0&Increment=50&submit=Search

> <Ligand HET ID in PDB>


> <PDB ID(s) for Ligand-Target Complex>


> <PubChem CID>
59208509

> <PubChem SID>
103919954

> <ChEBI ID of Ligand>


> <ChEMBL ID of Ligand>
CHEMBL3235073

> <DrugBank ID of Ligand>


> <IUPHAR_GRAC ID of Ligand>


> <KEGG ID of Ligand>


> <ZINC ID of Ligand>
ZINC26375849

> <Number of Protein Chains in Target (>1 implies a multichain complex)>
1

> <BindingDB Target Chain Sequence>
MVTALSDVNNTDNYGAGQIQVLEGLEAVRKRPGMYIGSTSERGLHHLVWEIVDNSIDEALAGYANQIEVVIEKDNWIKVTDNGRGIPVDIQEKMGRPAVEVILTVLHAGGKFGGGGYKVSGGLHGVGSSVVNALSQDLEVYVHRNETIYHQAYKKGVPQFDLKEVGTTDKTGTVIRFKADGEIFTETTVYNYETLQQRIRELAFLNKGIQITLRDERDEENVREDSYHYEGGIKSYVELLNENKEPIHDEPIYIHQSKDDIEVEIAIQYNSGYATNLLTYANNIHTYEGGTHEDGFKRALTRVLNSYGLSSKIMKEEKDRLSGEDTREGMTAIISIKHGDPQFEGQTKTKLGNSEVRQVVDKLFSEHFERFLYENPQVARTVVEKGIMAARARVAAKKAREVTRRKSALDVASLPGKLADCSSKSPEECEIFLVEGDSAGGSTKSGRDSRTQAILPLRGKILNVEKARLDRILNNNEIRQMITAFGTGIGGDFDLAKARYHKIVIMTDADVDGAHIRTLLLTFFYRFMRPLIEAGYVYIAQPPLYKLTQGKQKYYVYNDRELDKLKSELNPTPKWSIARYKGLGEMNADQLWETTMNPEHRALLQVKLEDAIEADQTFEMLMGDVVENRRQFIEDNAVYANLDF

> <PDB ID(s) of Target Chain>


> <UniProt (SwissProt) Recommended Name of Target Chain>
DNA gyrase subunit B

> <UniProt (SwissProt) Entry Name of Target Chain>
GYRB_STAAU

> <UniProt (SwissProt) Primary ID of Target Chain>
P0A0K8

> <UniProt (SwissProt) Secondary ID(s) of Target Chain>
P20832

> <UniProt (SwissProt) Alternative ID(s) of Target Chain>


> <UniProt (TrEMBL) Submitted Name of Target Chain>


> <UniProt (TrEMBL) Entry Name of Target Chain>


> <UniProt (TrEMBL) Primary ID of Target Chain>


> <UniProt (TrEMBL) Secondary ID(s) of Target Chain>


> <UniProt (TrEMBL) Alternative ID(s) of Target Chain>


$$$$

  Mrv0541 11231413392D          

 46 50  0  0  0  0            999 V2000
   11.9047    2.2780    0.0000 C   0  0  0  0  0  0  0  0  0  0  0  0
   11.1788    2.6794    0.0000 C   0  0  1  0  0  0  0  0  0  0  0  0
   10.4722    2.2540    0.0000 C   0  0  2  0  0  0  0  0  0  0  0  0
   10.4851    1.4253    0.0000 C   0  0  2  0  0  0  0  0  0  0  0  0
   11.2109    1.0237    0.0000 C   0  0  1  0  0  0  0  0  0  0  0  0
   11.9239    1.4510    0.0000 O   0  0  0  0  0  0  0  0  0  0  0  0
   11.2252    0.1990    0.0000 O   0  0  0  0  0  0  0  0  0  0  0  0
   11.9449   -0.2123    0.0000 C   0  0  0  0  0  0  0  0  0  0  0  0
   11.9441   -1.0366    0.0000 C   0  0  0  0  0  0  0  0  0  0  0  0
   12.6596    0.2019    0.0000 C   0  0  0  0  0  0  0  0  0  0  0  0
   13.3740   -0.2157    0.0000 C   0  0  0  0  0  0  0  0  0  0  0  0
   13.3721   -1.0402    0.0000 C   0  0  0  0  0  0  0  0  0  0  0  0
   12.6570   -1.4518    0.0000 C   0  0  0  0  0  0  0  0  0  0  0  0
   12.6558   -2.2723    0.0000 O   0  0  0  0  0  0  0  0  0  0  0  0
   13.3680   -2.6876    0.0000 C   0  0  0  0  0  0  0  0  0  0  0  0
   14.0832   -2.2761    0.0000 C   0  0  0  0  0  0  0  0  0  0  0  0
   14.0861   -1.4494    0.0000 C   0  0  0  0  0  0  0  0  0  0  0  0
   14.8005   -1.0369    0.0000 O   0  0  0  0  0  0  0  0  0  0  0  0
   13.3656   -3.5124    0.0000 O   0  0  0  0  0  0  0  0  0  0  0  0
   14.7965   -2.6903    0.0000 N   0  0  0  0  0  0  0  0  0  0  0  0
   14.7944   -3.5152    0.0000 C   0  0  0  0  0  0  0  0  0  0  0  0
   14.0791   -3.9259    0.0000 O   0  0  0  0  0  0  0  0  0  0  0  0
   15.5078   -3.9294    0.0000 C   0  0  0  0  0  0  0  0  0  0  0  0
   15.5028   -4.7535    0.0000 C   0  0  0  0  0  0  0  0  0  0  0  0
   16.2153   -5.1676    0.0000 C   0  0  0  0  0  0  0  0  0  0  0  0
   16.9317   -4.7569    0.0000 C   0  0  0  0  0  0  0  0  0  0  0  0
   16.9311   -3.9277    0.0000 C   0  0  0  0  0  0  0  0  0  0  0  0
   16.2180   -3.5174    0.0000 C   0  0  0  0  0  0  0  0  0  0  0  0
   17.6456   -5.1702    0.0000 O   0  0  0  0  0  0  0  0  0  0  0  0
   12.7321    2.2969    0.0000 C   0  0  0  0  0  0  0  0  0  0  0  0
   11.8938    3.1010    0.0000 C   0  0  0  0  0  0  0  0  0  0  0  0
   11.1638    3.5042    0.0000 O   0  0  0  0  0  0  0  0  0  0  0  0
   11.8704    3.9297    0.0000 C   0  0  0  0  0  0  0  0  0  0  0  0
    9.7509    2.6542    0.0000 O   0  0  0  0  0  0  0  0  0  0  0  0
    9.7779    1.0007    0.0000 O   0  0  0  0  0  0  0  0  0  0  0  0
   11.2289   -1.4475    0.0000 Cl  0  0  0  0  0  0  0  0  0  0  0  0
    9.0566    1.4011    0.0000 C   0  0  0  0  0  0  0  0  0  0  0  0
    8.3481    0.9756    0.0000 C   0  0  0  0  0  0  0  0  0  0  0  0
    9.0426    2.2257    0.0000 O   0  0  0  0  0  0  0  0  0  0  0  0
    7.7036    1.4833    0.0000 N   0  0  0  0  0  0  0  0  0  0  0  0
    7.0180    1.0246    0.0000 C   0  0  0  0  0  0  0  0  0  0  0  0
    7.2426    0.2307    0.0000 C   0  0  0  0  0  0  0  0  0  0  0  0
    8.0668    0.1992    0.0000 C   0  0  0  0  0  0  0  0  0  0  0  0
    6.3012    1.4389    0.0000 C   0  0  0  0  0  0  0  0  0  0  0  0
   17.6451   -3.5146    0.0000 O   0  0  0  0  0  0  0  0  0  0  0  0
   18.3599   -3.9263    0.0000 C   0  0  0  0  0  0  0  0  0  0  0  0
 21 22  2  0  0  0  0
 11 10  1  0  0  0  0
 21 23  1  0  0  0  0
 11 12  2  0  0  0  0
 23 24  2  0  0  0  0
  3  4  1  0  0  0  0
 24 25  1  0  0  0  0
 12 13  1  0  0  0  0
 25 26  2  0  0  0  0
  4  5  1  0  0  0  0
 26 27  1  0  0  0  0
  5  6  1  0  0  0  0
 27 28  2  0  0  0  0
 28 23  1  0  0  0  0
 26 29  1  0  0  0  0
  5  7  1  1  0  0  0
  1 30  1  0  0  0  0
  2  1  1  0  0  0  0
  1 31  1  0  0  0  0
  7  8  1  0  0  0  0
  2 32  1  1  0  0  0
 12 17  1  0  0  0  0
 32 33  1  0  0  0  0
 13 14  1  0  0  0  0
  3 34  1  6  0  0  0
 14 15  1  0  0  0  0
  4 35  1  6  0  0  0
 15 16  1  0  0  0  0
  9 36  1  0  0  0  0
 16 17  2  0  0  0  0
 35 37  1  0  0  0  0
  8  9  1  0  0  0  0
 37 38  1  0  0  0  0
 17 18  1  0  0  0  0
 37 39  2  0  0  0  0
 38 40  1  0  0  0  0
  1  6  1  0  0  0  0
 15 19  2  0  0  0  0
  3  2  1  0  0  0  0
 16 20  1  0  0  0  0
 40 41  1  0  0  0  0
 41 42  2  0  0  0  0
 42 43  1  0  0  0  0
 43 38  2  0  0  0  0
  8 10  2  0  0  0  0
 41 44  1  0  0  0  0
 20 21  1  0  0  0  0
 27 45  1  0  0  0  0
  9 13  2  0  0  0  0
 45 46  1  0  0  0  0
M  END
> <From> 
www.bindingDB.org

> <BindingDB Reactant_set_id>
50607664

> <Ligand InChI>
InChI=1S/C31H31ClN2O12/c1-13-6-9-16(33-13)28(39)45-25-23(37)26(42-5)31(2,3)46-30(25)43-18-11-8-15-22(36)21(29(40)44-24(15)20(18)32)34-27(38)14-7-10-17(35)19(12-14)41-4/h6-12,23,25-26,30,33,35-37H,1-5H3,(H,34,38)/t23-,25+,26+,30+/m0/s1

> <Ligand InChI Key>
AKYRQFMQZJFLAE-AUHTVUCRSA-N

> <BindingDB MonomerID>
50330293

> <BindingDB Ligand Name>
(2S,3R,4R,5R)-2-(8-chloro-4-hydroxy-3-(4-hydroxy-3-methoxybenzamido)-2-oxo-2H-chromen-7-yloxy)-4-hydroxy-5-methoxy-6,6-dimethyltetrahydro-2H-pyran-3-yl 5-methyl-1H-pyrrole-2-carboxylate::CHEMBL1275899

> <Target Name Assigned by Curator or DataSource>
DNA Gyrase Subunit B

> <Target Source Organism According to Curator or DataSource>
Escherichia coli

> <Ki (nM)>


> <IC50 (nM)>
 891

> <Kd (nM)>


> <EC50 (nM)>


> <kon (M-1-s-1)>


> <koff (s-1)>


> <pH>


> <Temp C>


> <Curation/DataSource>
ChEMBL

> <Article DOI>
10.1128/AAC.01235-07

> <PMID>
18347114

> <PubChem AID>


> <Patent Number>


> <Authors>
Anderle, C; Stieger, M; Burrell, M; Reinelt, S; Maxwell, A; Page, M; Heide, L

> <Institution>
Universit&#228;t T&#252;bingen

> <Link to Ligand in BindingDB>
http://www.bindingdb.org/bind/chemsearch/marvin/MolStructure.jsp?monomerid=50330293

> <Link to Ligand-Target Pair in BindingDB>
http://www.bindingdb.org/jsp/dbsearch/PrimarySearch_ki.jsp?energyterm=kJ/mole&tag=pol&polymerid=2630&target=DNA+Gyrase+Subunit+B&column=ki&startPg=0&Increment=50&submit=Search

> <Link to Ligand-Target Pair in BindingDB>
http://www.bindingdb.org/jsp/dbsearch/PrimarySearch_ki.jsp?energyterm=kJ/mole&tag=r21&monomerid=50330293&enzyme=DNA+Gyrase+Subunit+B&column=ki&startPg=0&Increment=50&submit=Search

> <Ligand HET ID in PDB>


> <PDB ID(s) for Ligand-Target Complex>


> <PubChem CID>
54713406

> <PubChem SID>
123109408

> <ChEBI ID of Ligand>


> <ChEMBL ID of Ligand>
CHEMBL1275899

> <DrugBank ID of Ligand>


> <IUPHAR_GRAC ID of Ligand>


> <KEGG ID of Ligand>


> <ZINC ID of Ligand>
ZINC72138082

> <Number of Protein Chains in Target (>1 implies a multichain complex)>
1

> <BindingDB Target Chain Sequence>
MSNSYDSSSIKVLKGLDAVRKRPGMYIGDTDDGTGLHHMVFEVVDNAIDEALAGHCKEII
VTIHADNSVSVQDDGRGIPTGIHPEEGVSAAEVIMTVLHAGGKFDDNSYKVSGGLHGVGV
SVVNALSQKLELVIQREGKIHRQIYEHGVPQAPLAVTGETEKTGTMVRFWPSLETFTNVT
EFEYEILAKRLRELSFLNSGVSIRLRDKRDGKEDHFHYEGGIKAFVEYLNKNKTPIHPNI
FYFSTEKDGIGVEVALQWNDGFQENIYCFTNNIPQRDGGTHLAGFRAAMTRTLNAYMDKE
GYSKKAKVSATGDDAREGLIAVVSVKVPDPKFSSQTKDKLVSSEVKSAVEQQMNELLAEY
LLENPTDAKIVVGKIIDAARAREAARRAREMTRRKGALDLAGLPGKLADCQERDPALSEL
YLVEGDSAGGSAKQGRNRKNQAILPLKGKILNVEKARFDKMLSSQEVATLITALGCGIGR
DEYNPDKLRYHSIIIMTDADVDGSHIRTLLLTFFYRQMPEIVERGHVYIAQPPLYKVKKG
KQEQYIKDDEAMDQYQISIALDGATLHTNASAPALAGEALEKLVSEYNATQKMINRMERR
YPKAMLKELIYQPTLTEADLSDEQTVTRWVNALVSELNDKEQHGSQWKFDVHTNAEQNLF
EPIVRVRTHGVDTDYPLDHEFITGGEYRRICTLGEKLRGLLEEDAFIERGERRQPVASFE
QALDWLVKESRRGLSIQRYKGLGEMNPEQLWETTMDPESRRMLRVTVKDAIAADQLFTTL
MGDAVEPRRAFIEENALKAANIDI

> <PDB ID(s) of Target Chain>
1KZN,3G7E,3NUH,4DUH,4HYP,4KFG,4PRV,4PRX,4PU9,4WUB,4WUC,4WUD,4XTJ,4ZVI,5L3J,5MMN,5MMO,5MMP,5Z4H,5Z4O,5Z9B,5Z9E,5Z9F,5Z9L,5Z9M,5Z9N,5Z9Q,6ENG,6F86,6F8J,6F94,6F96

> <UniProt (SwissProt) Recommended Name of Target Chain>
DNA gyrase subunit B

> <UniProt (SwissProt) Entry Name of Target Chain>
GYRB_ECOLI

> <UniProt (SwissProt) Primary ID of Target Chain>
P0AES6

> <UniProt (SwissProt) Secondary ID(s) of Target Chain>
O08438,P06982,Q2M811

> <UniProt (SwissProt) Alternative ID(s) of Target Chain>


> <UniProt (TrEMBL) Submitted Name of Target Chain>


> <UniProt (TrEMBL) Entry Name of Target Chain>


> <UniProt (TrEMBL) Primary ID of Target Chain>


> <UniProt (TrEMBL) Secondary ID(s) of Target Chain>


> <UniProt (TrEMBL) Alternative ID(s) of Target Chain>


$$$$

  Mrv0541 04171609262D          

 30 33  0  0  0  0            999 V2000
   -1.4361    0.4117    0.0000 C   0  0  0  0  0  0  0  0  0  0  0  0
   -1.4361   -0.4117    0.0000 C   0  0  0  0  0  0  0  0  0  0  0  0
   -0.7130   -0.8235    0.0000 C   0  0  0  0  0  0  0  0  0  0  0  0
   -0.7130    0.8235    0.0000 C   0  0  0  0  0  0  0  0  0  0  0  0
    0.0000    0.4117    0.0000 C   0  0  0  0  0  0  0  0  0  0  0  0
    0.0000   -0.4117    0.0000 C   0  0  0  0  0  0  0  0  0  0  0  0
    0.7130   -0.8235    0.0000 N   0  0  0  0  0  0  0  0  0  0  0  0
    1.4261   -0.4117    0.0000 C   0  0  0  0  0  0  0  0  0  0  0  0
    1.4261    0.4117    0.0000 C   0  0  0  0  0  0  0  0  0  0  0  0
    0.7130    0.8235    0.0000 C   0  0  0  0  0  0  0  0  0  0  0  0
    0.7130    1.6489    0.0000 N   0  0  0  0  0  0  0  0  0  0  0  0
   -0.0008    2.0627    0.0000 C   0  0  0  0  0  0  0  0  0  0  0  0
    0.0006    2.8877    0.0000 C   0  0  0  0  0  0  0  0  0  0  0  0
    0.7158    3.2990    0.0000 C   0  0  0  0  0  0  0  0  0  0  0  0
    1.4296    2.8853    0.0000 C   0  0  0  0  0  0  0  0  0  0  0  0
    1.4282    2.0603    0.0000 C   0  0  0  0  0  0  0  0  0  0  0  0
    0.7188    4.1245    0.0000 N   0  0  0  0  0  0  0  0  0  0  0  0
    1.4350    4.5350    0.0000 C   0  0  0  0  0  0  0  0  0  0  0  0
    2.0054    4.2031    0.0000 S   0  0  0  0  0  0  0  0  0  0  0  0
    1.4380    5.3604    0.0000 N   0  0  0  0  0  0  0  0  0  0  0  0
    2.1541    5.7709    0.0000 C   0  0  0  0  0  0  0  0  0  0  0  0
    2.1584    6.5960    0.0000 C   0  0  0  0  0  0  0  0  0  0  0  0
    2.8750    7.0048    0.0000 C   0  0  0  0  0  0  0  0  0  0  0  0
    3.5873    6.5887    0.0000 C   0  0  0  0  0  0  0  0  0  0  0  0
    3.5831    5.7637    0.0000 C   0  0  0  0  0  0  0  0  0  0  0  0
    2.8666    5.3548    0.0000 C   0  0  0  0  0  0  0  0  0  0  0  0
    1.9977   -0.7417    0.0000 C   0  0  0  0  0  0  0  0  0  0  0  0
    4.1606    6.9157    0.0000 Cl  0  0  0  0  0  0  0  0  0  0  0  0
   -2.1500    0.8260    0.0000 O   0  0  0  0  0  0  0  0  0  0  0  0
   -2.1490    1.4860    0.0000 C   0  0  0  0  0  0  0  0  0  0  0  0
  1  2  4  0  0  0  0
  2  3  4  0  0  0  0
  3  6  4  0  0  0  0
  5  4  4  0  0  0  0
  4  1  4  0  0  0  0
  5  6  4  0  0  0  0
  6  7  4  0  0  0  0
  7  8  4  0  0  0  0
  8  9  4  0  0  0  0
  9 10  4  0  0  0  0
 10  5  4  0  0  0  0
 11 12  1  0  0  0  0
 11 16  1  0  0  0  0
 12 13  1  0  0  0  0
 13 14  1  0  0  0  0
 14 15  1  0  0  0  0
 15 16  1  0  0  0  0
 10 11  1  0  0  0  0
 14 17  1  0  0  0  0
 17 18  1  0  0  0  0
 18 19  2  0  0  0  0
 18 20  1  0  0  0  0
 20 21  1  0  0  0  0
 21 22  4  0  0  0  0
 22 23  4  0  0  0  0
 23 24  4  0  0  0  0
 24 25  4  0  0  0  0
 25 26  4  0  0  0  0
 26 21  4  0  0  0  0
  8 27  1  0  0  0  0
 24 28  1  0  0  0  0
  1 29  1  0  0  0  0
 29 30  1  0  0  0  0
M  END
> <From> 
www.bindingDB.org

> <BindingDB Reactant_set_id>
50303835

> <Ligand InChI>
InChI=1S/C23H25ClN4OS/c1-15-13-22(20-14-19(29-2)7-8-21(20)25-15)28-11-9-18(10-12-28)27-23(30)26-17-5-3-16(24)4-6-17/h3-8,13-14,18H,9-12H2,1-2H3,(H2,26,27,30)

> <Ligand InChI Key>
SVUYKBAXBQFPGA-UHFFFAOYSA-N

> <BindingDB MonomerID>
50067153

> <BindingDB Ligand Name>
CHEMBL3403274

> <Target Name Assigned by Curator or DataSource>
DNA gyrase subunit B

> <Target Source Organism According to Curator or DataSource>


> <Ki (nM)>


> <IC50 (nM)>
 950

> <Kd (nM)>


> <EC50 (nM)>


> <kon (M-1-s-1)>


> <koff (s-1)>


> <pH>


> <Temp C>


> <Curation/DataSource>
ChEMBL

> <Article DOI>
10.1016/j.bmc.2015.03.004

> <PMID>
25801151

> <PubChem AID>


> <Patent Number>


> <Authors>
Medapi, B; Renuka, J; Saxena, S; Sridevi, JP; Medishetti, R; Kulkarni, P; Yogeeswari, P; Sriram, D

> <Institution>
Birla Institute of Technology&amp; Science-Pilani

> <Link to Ligand in BindingDB>
http://www.bindingdb.org/bind/chemsearch/marvin/MolStructure.jsp?monomerid=50067153

> <Link to Ligand-Target Pair in BindingDB>
http://www.bindingdb.org/jsp/dbsearch/PrimarySearch_ki.jsp?energyterm=kJ/mole&tag=pol&polymerid=50006452&target=DNA+gyrase+subunit+B&column=ki&startPg=0&Increment=50&submit=Search

> <Link to Ligand-Target Pair in BindingDB>
http://www.bindingdb.org/jsp/dbsearch/PrimarySearch_ki.jsp?energyterm=kJ/mole&tag=r21&monomerid=50067153&enzyme=DNA+gyrase+subunit+B&column=ki&startPg=0&Increment=50&submit=Search

> <Ligand HET ID in PDB>


> <PDB ID(s) for Ligand-Target Complex>


> <PubChem CID>
118729690

> <PubChem SID>
313071784

> <ChEBI ID of Ligand>


> <ChEMBL ID of Ligand>


> <DrugBank ID of Ligand>


> <IUPHAR_GRAC ID of Ligand>


> <KEGG ID of Ligand>


> <ZINC ID of Ligand>


> <Number of Protein Chains in Target (>1 implies a multichain complex)>
1

> <BindingDB Target Chain Sequence>
MAAQKNNAPKEYGADSITILEGLEAVRKRPGMYIGSTGERGLHHLIWEVVDNAVDEAMAGFATRVDVKIHADGSVEVRDDGRGIPVEMHATGMPTIDVVMTQLHAGGKFDGETYAVSGGLHGVGVSVVNALSTRLEATVLRDGYEWFQYYDRSVPGKLKQGGETKETGTTIRFWADPEIFETTDYNFETVARRLQEMAFLNKGLTIELTDERVTAEEVVDDVVKDTAEAPKTADEKAAEATGPSKVKHRVFHYPGGLVDYVKHINRTKTPIQQSIIDFDGKGPGHEVEIAMQWNAGYSESVHTFANTINTHEGGTHEEGFRAALTSVVNRYAKDKKLLKDKDPNLTGDDIREGLAAVISVKVAEPQFEGQTKTKLGNTEVKSFVQKICNEQLQHWFEANPAEAKTVVNKAVSSAQARIAARKARELVRRKSATDIGGLPGKLADCRSTDPSKSELYVVEGDSAGGSAKSGRDSMFQAILPLRGKIINVEKARIDRVLKNTEVQSIITALGTGIHDEFDISKLRYHKIVLMADADVDGQHISTLLLTLLFRFMKPLVENGHIFLAQPPLYKLKWQRSEPEFAYSDRERDGLLEAGRAAGKKINVDDGIQRYKGLGEMDAKELWETTMDPSVRVLRQVTLDDAAAADELFSILMGEDVEARRSFITRNAKDVRFLDV

> <PDB ID(s) of Target Chain>
4BAE

> <UniProt (SwissProt) Recommended Name of Target Chain>
DNA gyrase subunit B

> <UniProt (SwissProt) Entry Name of Target Chain>
GYRB_MYCSM

> <UniProt (SwissProt) Primary ID of Target Chain>
P0C559

> <UniProt (SwissProt) Secondary ID(s) of Target Chain>
P48355,Q59555

> <UniProt (SwissProt) Alternative ID(s) of Target Chain>


> <UniProt (TrEMBL) Submitted Name of Target Chain>


> <UniProt (TrEMBL) Entry Name of Target Chain>


> <UniProt (TrEMBL) Primary ID of Target Chain>


> <UniProt (TrEMBL) Secondary ID(s) of Target Chain>


> <UniProt (TrEMBL) Alternative ID(s) of Target Chain>


$$$$

  SciTegic04201612532D

 31 34  0  0  0  0            999 V2000
   -1.2964    1.4973    0.0000 N   0  0
   -2.6111    0.7486    0.0000 C   0  0
   -2.6111   -0.7486    0.0000 C   0  0
   -1.2964   -1.4973    0.0000 C   0  0
    0.0000   -0.7486    0.0000 C   0  0
    1.2964   -1.4973    0.0000 C   0  0
    2.5929   -0.7486    0.0000 C   0  0
    2.5929    0.7486    0.0000 C   0  0
    1.2964    1.4973    0.0000 C   0  0
    0.0000    0.7486    0.0000 C   0  0
   -3.9122   -1.4966    0.0000 C   0  0
   -3.9138   -2.4966    0.0000 O   0  0
   -5.2109   -0.7445    0.0000 N   0  0
   -1.2907   -2.9981    0.0000 N   0  0
   -2.5870   -3.7544    0.0000 C   0  0
   -2.5835   -5.2544    0.0000 C   0  0
   -3.8807   -6.0076    0.0000 C   0  0
   -5.1815   -5.2608    0.0000 C   0  0
   -5.1852   -3.7608    0.0000 C   0  0
   -3.8880   -3.0076    0.0000 C   0  0
   -6.4810   -6.0117    0.0000 O   0  0
   -7.7815   -5.2626    0.0000 C   0  0
   -9.0810   -6.0135    0.0000 C   0  0
  -10.3815   -5.2644    0.0000 C   0  0
  -14.2755   -7.5217    0.0000 O   0  0
  -14.2791   -6.0217    0.0000 C   0  0
  -12.9819   -5.2686    0.0000 C   0  0
  -11.6810   -6.0154    0.0000 N   0  0
  -11.6774   -7.5154    0.0000 C   0  0
  -12.9746   -8.2686    0.0000 C   0  0
   -6.2513   -1.3425    0.0000 N   0  0
  1  2  2  0
  2  3  1  0
  3  4  2  0
  4  5  1  0
  5  6  2  0
  6  7  1  0
  7  8  2  0
  8  9  1  0
  9 10  2  0
  1 10  1  0
  5 10  1  0
 11 12  2  0
 11 13  1  0
  3 11  1  0
 15 16  1  0
 16 17  2  0
 17 18  1  0
 18 19  2  0
 19 20  1  0
 15 20  2  0
 22 23  1  0
 23 24  1  0
 21 22  1  0
 25 26  1  0
 26 27  1  0
 27 28  1  0
 28 29  1  0
 29 30  1  0
 25 30  1  0
 24 28  1  0
 18 21  1  0
 14 15  1  0
  4 14  1  0
 13 31  1  0
M  END
> <From> 
www.bindingDB.org

> <BindingDB Reactant_set_id>
50426778

> <Ligand InChI>
InChI=1S/C23H27N5O3/c24-27-23(29)20-16-25-21-5-2-1-4-19(21)22(20)26-17-6-8-18(9-7-17)31-13-3-10-28-11-14-30-15-12-28/h1-2,4-9,16H,3,10-15,24H2,(H,25,26)(H,27,29)

> <Ligand InChI Key>
GEQVIEACUIQISY-UHFFFAOYSA-N

> <BindingDB MonomerID>
50126797

> <BindingDB Ligand Name>
CHEMBL3628440

> <Target Name Assigned by Curator or DataSource>
DNA gyrase subunit B

> <Target Source Organism According to Curator or DataSource>


> <Ki (nM)>


> <IC50 (nM)>
 970

> <Kd (nM)>


> <EC50 (nM)>


> <kon (M-1-s-1)>


> <koff (s-1)>


> <pH>


> <Temp C>


> <Curation/DataSource>
ChEMBL

> <Article DOI>
10.1016/j.ejmech.2015.06.032

> <PMID>
26318054

> <PubChem AID>


> <Patent Number>


> <Authors>
Medapi, B; Suryadevara, P; Renuka, J; Sridevi, JP; Yogeeswari, P; Sriram, D

> <Institution>
Birla Institute of Technology&amp;Science

> <Link to Ligand in BindingDB>
http://www.bindingdb.org/bind/chemsearch/marvin/MolStructure.jsp?monomerid=50126797

> <Link to Ligand-Target Pair in BindingDB>
http://www.bindingdb.org/jsp/dbsearch/PrimarySearch_ki.jsp?energyterm=kJ/mole&tag=pol&polymerid=50006452&target=DNA+gyrase+subunit+B&column=ki&startPg=0&Increment=50&submit=Search

> <Link to Ligand-Target Pair in BindingDB>
http://www.bindingdb.org/jsp/dbsearch/PrimarySearch_ki.jsp?energyterm=kJ/mole&tag=r21&monomerid=50126797&enzyme=DNA+gyrase+subunit+B&column=ki&startPg=0&Increment=50&submit=Search

> <Ligand HET ID in PDB>


> <PDB ID(s) for Ligand-Target Complex>


> <PubChem CID>
122193453

> <PubChem SID>
321902399

> <ChEBI ID of Ligand>


> <ChEMBL ID of Ligand>


> <DrugBank ID of Ligand>


> <IUPHAR_GRAC ID of Ligand>


> <KEGG ID of Ligand>


> <ZINC ID of Ligand>


> <Number of Protein Chains in Target (>1 implies a multichain complex)>
1

> <BindingDB Target Chain Sequence>
MAAQKNNAPKEYGADSITILEGLEAVRKRPGMYIGSTGERGLHHLIWEVVDNAVDEAMAGFATRVDVKIHADGSVEVRDDGRGIPVEMHATGMPTIDVVMTQLHAGGKFDGETYAVSGGLHGVGVSVVNALSTRLEATVLRDGYEWFQYYDRSVPGKLKQGGETKETGTTIRFWADPEIFETTDYNFETVARRLQEMAFLNKGLTIELTDERVTAEEVVDDVVKDTAEAPKTADEKAAEATGPSKVKHRVFHYPGGLVDYVKHINRTKTPIQQSIIDFDGKGPGHEVEIAMQWNAGYSESVHTFANTINTHEGGTHEEGFRAALTSVVNRYAKDKKLLKDKDPNLTGDDIREGLAAVISVKVAEPQFEGQTKTKLGNTEVKSFVQKICNEQLQHWFEANPAEAKTVVNKAVSSAQARIAARKARELVRRKSATDIGGLPGKLADCRSTDPSKSELYVVEGDSAGGSAKSGRDSMFQAILPLRGKIINVEKARIDRVLKNTEVQSIITALGTGIHDEFDISKLRYHKIVLMADADVDGQHISTLLLTLLFRFMKPLVENGHIFLAQPPLYKLKWQRSEPEFAYSDRERDGLLEAGRAAGKKINVDDGIQRYKGLGEMDAKELWETTMDPSVRVLRQVTLDDAAAADELFSILMGEDVEARRSFITRNAKDVRFLDV

> <PDB ID(s) of Target Chain>
4BAE

> <UniProt (SwissProt) Recommended Name of Target Chain>
DNA gyrase subunit B

> <UniProt (SwissProt) Entry Name of Target Chain>
GYRB_MYCSM

> <UniProt (SwissProt) Primary ID of Target Chain>
P0C559

> <UniProt (SwissProt) Secondary ID(s) of Target Chain>
P48355,Q59555

> <UniProt (SwissProt) Alternative ID(s) of Target Chain>


> <UniProt (TrEMBL) Submitted Name of Target Chain>


> <UniProt (TrEMBL) Entry Name of Target Chain>


> <UniProt (TrEMBL) Primary ID of Target Chain>


> <UniProt (TrEMBL) Secondary ID(s) of Target Chain>


> <UniProt (TrEMBL) Alternative ID(s) of Target Chain>


$$$$

  SciTegic04201612532D

 38 41  0  0  0  0            999 V2000
   -1.2964    1.4973    0.0000 N   0  0
   -2.6111    0.7486    0.0000 C   0  0
   -2.6111   -0.7486    0.0000 C   0  0
   -1.2964   -1.4973    0.0000 C   0  0
    0.0000   -0.7486    0.0000 C   0  0
    1.2964   -1.4973    0.0000 C   0  0
    2.5929   -0.7486    0.0000 C   0  0
    2.5929    0.7486    0.0000 C   0  0
    1.2964    1.4973    0.0000 C   0  0
    0.0000    0.7486    0.0000 C   0  0
   -3.9122   -1.4966    0.0000 C   0  0
   -3.9138   -2.4966    0.0000 O   0  0
   -5.2109   -0.7445    0.0000 O   0  0
   -1.2907   -2.9981    0.0000 N   0  0
   -2.5870   -3.7544    0.0000 C   0  0
   -2.5835   -5.2544    0.0000 C   0  0
   -3.8807   -6.0076    0.0000 C   0  0
   -5.1815   -5.2608    0.0000 C   0  0
   -5.1852   -3.7608    0.0000 C   0  0
   -3.8880   -3.0076    0.0000 C   0  0
   -6.4810   -6.0117    0.0000 O   0  0
   -7.7815   -5.2626    0.0000 C   0  0
   -9.0810   -6.0135    0.0000 C   0  0
  -10.3815   -5.2644    0.0000 C   0  0
  -14.2755   -7.5217    0.0000 N   0  0
  -14.2791   -6.0217    0.0000 C   0  0
  -12.9819   -5.2686    0.0000 C   0  0
  -11.6810   -6.0154    0.0000 N   0  0
  -11.6774   -7.5154    0.0000 C   0  0
  -12.9746   -8.2686    0.0000 C   0  0
   -6.5121   -1.4924    0.0000 C   0  0
   -7.5506   -0.8910    0.0000 C   0  0
  -15.5719   -8.2779    0.0000 C   0  0
  -15.5672   -9.4779    0.0000 C   0  0
    3.8926   -1.4991    0.0000 C   0  0
    3.8934   -2.6991    0.0000 F   0  0
    4.9317   -0.8987    0.0000 F   0  0
    4.9322   -2.0986    0.0000 F   0  0
  1  2  2  0
  2  3  1  0
  3  4  2  0
  4  5  1  0
  5  6  2  0
  6  7  1  0
  7  8  2  0
  8  9  1  0
  9 10  2  0
  1 10  1  0
  5 10  1  0
 11 12  2  0
 11 13  1  0
  3 11  1  0
 15 16  1  0
 16 17  2  0
 17 18  1  0
 18 19  2  0
 19 20  1  0
 15 20  2  0
 22 23  1  0
 23 24  1  0
 21 22  1  0
 25 26  1  0
 26 27  1  0
 27 28  1  0
 28 29  1  0
 29 30  1  0
 25 30  1  0
 24 28  1  0
 18 21  1  0
 14 15  1  0
  4 14  1  0
 31 32  1  0
 13 31  1  0
 25 33  1  0
 33 34  1  0
 35 36  1  0
 35 37  1  0
 35 38  1  0
  7 35  1  0
M  END
> <From> 
www.bindingDB.org

> <BindingDB Reactant_set_id>
50426783

> <Ligand InChI>
InChI=1S/C28H33F3N4O3/c1-3-34-13-15-35(16-14-34)12-5-17-38-22-9-7-21(8-10-22)33-26-23-18-20(28(29,30)31)6-11-25(23)32-19-24(26)27(36)37-4-2/h6-11,18-19H,3-5,12-17H2,1-2H3,(H,32,33)

> <Ligand InChI Key>
YRGQOMBEKVGZRN-UHFFFAOYSA-N

> <BindingDB MonomerID>
50126828

> <BindingDB Ligand Name>
CHEMBL3628358

> <Target Name Assigned by Curator or DataSource>
DNA gyrase subunit B

> <Target Source Organism According to Curator or DataSource>


> <Ki (nM)>


> <IC50 (nM)>
 970

> <Kd (nM)>


> <EC50 (nM)>


> <kon (M-1-s-1)>


> <koff (s-1)>


> <pH>


> <Temp C>


> <Curation/DataSource>
ChEMBL

> <Article DOI>
10.1016/j.ejmech.2015.06.032

> <PMID>
26318054

> <PubChem AID>


> <Patent Number>


> <Authors>
Medapi, B; Suryadevara, P; Renuka, J; Sridevi, JP; Yogeeswari, P; Sriram, D

> <Institution>
Birla Institute of Technology&amp;Science

> <Link to Ligand in BindingDB>
http://www.bindingdb.org/bind/chemsearch/marvin/MolStructure.jsp?monomerid=50126828

> <Link to Ligand-Target Pair in BindingDB>
http://www.bindingdb.org/jsp/dbsearch/PrimarySearch_ki.jsp?energyterm=kJ/mole&tag=pol&polymerid=50006452&target=DNA+gyrase+subunit+B&column=ki&startPg=0&Increment=50&submit=Search

> <Link to Ligand-Target Pair in BindingDB>
http://www.bindingdb.org/jsp/dbsearch/PrimarySearch_ki.jsp?energyterm=kJ/mole&tag=r21&monomerid=50126828&enzyme=DNA+gyrase+subunit+B&column=ki&startPg=0&Increment=50&submit=Search

> <Ligand HET ID in PDB>


> <PDB ID(s) for Ligand-Target Complex>


> <PubChem CID>
122193399

> <PubChem SID>
104018896

> <ChEBI ID of Ligand>


> <ChEMBL ID of Ligand>
CHEMBL35479

> <DrugBank ID of Ligand>


> <IUPHAR_GRAC ID of Ligand>


> <KEGG ID of Ligand>


> <ZINC ID of Ligand>
ZINC13783199

> <Number of Protein Chains in Target (>1 implies a multichain complex)>
1

> <BindingDB Target Chain Sequence>
MAAQKNNAPKEYGADSITILEGLEAVRKRPGMYIGSTGERGLHHLIWEVVDNAVDEAMAGFATRVDVKIHADGSVEVRDDGRGIPVEMHATGMPTIDVVMTQLHAGGKFDGETYAVSGGLHGVGVSVVNALSTRLEATVLRDGYEWFQYYDRSVPGKLKQGGETKETGTTIRFWADPEIFETTDYNFETVARRLQEMAFLNKGLTIELTDERVTAEEVVDDVVKDTAEAPKTADEKAAEATGPSKVKHRVFHYPGGLVDYVKHINRTKTPIQQSIIDFDGKGPGHEVEIAMQWNAGYSESVHTFANTINTHEGGTHEEGFRAALTSVVNRYAKDKKLLKDKDPNLTGDDIREGLAAVISVKVAEPQFEGQTKTKLGNTEVKSFVQKICNEQLQHWFEANPAEAKTVVNKAVSSAQARIAARKARELVRRKSATDIGGLPGKLADCRSTDPSKSELYVVEGDSAGGSAKSGRDSMFQAILPLRGKIINVEKARIDRVLKNTEVQSIITALGTGIHDEFDISKLRYHKIVLMADADVDGQHISTLLLTLLFRFMKPLVENGHIFLAQPPLYKLKWQRSEPEFAYSDRERDGLLEAGRAAGKKINVDDGIQRYKGLGEMDAKELWETTMDPSVRVLRQVTLDDAAAADELFSILMGEDVEARRSFITRNAKDVRFLDV

> <PDB ID(s) of Target Chain>
4BAE

> <UniProt (SwissProt) Recommended Name of Target Chain>
DNA gyrase subunit B

> <UniProt (SwissProt) Entry Name of Target Chain>
GYRB_MYCSM

> <UniProt (SwissProt) Primary ID of Target Chain>
P0C559

> <UniProt (SwissProt) Secondary ID(s) of Target Chain>
P48355,Q59555

> <UniProt (SwissProt) Alternative ID(s) of Target Chain>


> <UniProt (TrEMBL) Submitted Name of Target Chain>


> <UniProt (TrEMBL) Entry Name of Target Chain>


> <UniProt (TrEMBL) Primary ID of Target Chain>


> <UniProt (TrEMBL) Secondary ID(s) of Target Chain>


> <UniProt (TrEMBL) Alternative ID(s) of Target Chain>


$$$$

  SciTegic09291413392D

 29 32  0  0  0  0            999 V2000
    3.9029  -25.5640    0.0000 C   0  0
    3.9018  -26.3836    0.0000 C   0  0
    4.6098  -26.7925    0.0000 N   0  0
    4.6081  -25.1552    0.0000 C   0  0
    5.3167  -25.5604    0.0000 C   0  0
    5.3215  -26.3836    0.0000 C   0  0
    6.1059  -26.6334    0.0000 S   0  0
    6.5859  -25.9646    0.0000 C   0  0
    6.0981  -25.3015    0.0000 N   0  0
    3.1972  -25.1558    0.0000 C   0  0
    3.1983  -24.3375    0.0000 C   0  0
    2.4914  -23.9291    0.0000 N   0  0
    1.7828  -24.3379    0.0000 C   0  0
    1.7856  -25.1594    0.0000 N   0  0
    7.4031  -25.9597    0.0000 N   0  0
    7.8075  -25.2496    0.0000 C   0  0
    8.6246  -25.2448    0.0000 N   0  0
    7.3947  -24.5443    0.0000 O   0  0
    9.0291  -24.5347    0.0000 C   0  0
    9.8462  -24.5299    0.0000 C   0  0
    3.1938  -26.7916    0.0000 N   0  0
    2.4864  -26.3824    0.0000 C   0  0
    2.4870  -25.5652    0.0000 C   0  0
    1.7783  -26.7905    0.0000 C   0  0
    1.0355  -26.4598    0.0000 C   0  0
    0.4882  -27.0666    0.0000 C   0  0
    0.8963  -27.7747    0.0000 C   0  0
    1.6957  -27.6053    0.0000 O   0  0
    3.1931  -27.6088    0.0000 C   0  0
  1  2  2  0
  2  3  1  0
  3  6  2  0
  5  4  2  0
  4  1  1  0
  5  6  1  0
  6  7  1  0
  7  8  1  0
  8  9  2  0
  9  5  1  0
 10 11  2  0
 11 12  1  0
 12 13  2  0
 13 14  1  0
 14 23  2  0
 23 10  1  0
  1 10  1  0
  8 15  1  0
 15 16  1  0
 16 17  1  0
 16 18  2  0
 17 19  1  0
 19 20  1  0
  2 21  1  0
 21 22  1  0
 22 24  1  0
 24 25  1  0
 25 26  1  0
 26 27  1  0
 27 28  1  0
 28 24  1  0
 21 29  1  0
M  END
> <From> 
www.bindingDB.org

> <BindingDB Reactant_set_id>
50089917

> <Ligand InChI>
InChI=1S/C19H23N7O2S/c1-3-22-18(27)25-19-23-15-7-14(12-8-20-11-21-9-12)16(24-17(15)29-19)26(2)10-13-5-4-6-28-13/h7-9,11,13H,3-6,10H2,1-2H3,(H2,22,23,25,27)

> <Ligand InChI Key>
UPSJWYMDJZQLIT-UHFFFAOYSA-N

> <BindingDB MonomerID>
50010357

> <BindingDB Ligand Name>
CHEMBL3263601

> <Target Name Assigned by Curator or DataSource>
DNA gyrase subunit B

> <Target Source Organism According to Curator or DataSource>


> <Ki (nM)>


> <IC50 (nM)>
 1100

> <Kd (nM)>


> <EC50 (nM)>


> <kon (M-1-s-1)>


> <koff (s-1)>


> <pH>


> <Temp C>


> <Curation/DataSource>
ChEMBL

> <Article DOI>
10.1021/jm401268f

> <PMID>
24088190

> <PubChem AID>


> <Patent Number>


> <Authors>
Ahuja, V; Ahuja, V; Basavarajappa, H; Basavarajappa, H; P, SH; P, SH; Boriack-Sjodin, PA; Boriack-Sjodin, PA; McKinney, D; McKinney, D; Ganguly, S; Ganguly, S; Kranthi, U; Kranthi, U; Gaonkar, S; Gaonkar, S; Jena, Lk; Jena, Lk; Ghorpade, SR; Ghorpade, SR; Ghosh, A; Ghosh, A; Barde, S; Barde, S; Kale, MG; Kale, MG; Koushik, K; Koushik, K; Kumar, CN; Kumar, CN; Manjunatha, MR; Manjunatha, MR; Ogg, D; Ogg, D; Panduga, V; Panduga, V; Ramya, VK; Ramya, VK; Reddy, J; Reddy, J; Kumar, KN; Kumar, KN; Giridhar, J; Giridhar, J; Rudrapatna, S; Rudrapatna, S; Sharma, S; Sharma, S; Tucker, JA; Tucker, JA; Vachaspati, P; Vachaspati, P; Waterson, D; Waterson, D; de Sousa, SM; de Sousa, SM

> <Institution>
AstraZeneca India Pvt. Ltd.

> <Link to Ligand in BindingDB>
http://www.bindingdb.org/bind/chemsearch/marvin/MolStructure.jsp?monomerid=50010357

> <Link to Ligand-Target Pair in BindingDB>
http://www.bindingdb.org/jsp/dbsearch/PrimarySearch_ki.jsp?energyterm=kJ/mole&tag=pol&polymerid=50006452&target=DNA+gyrase+subunit+B&column=ki&startPg=0&Increment=50&submit=Search

> <Link to Ligand-Target Pair in BindingDB>
http://www.bindingdb.org/jsp/dbsearch/PrimarySearch_ki.jsp?energyterm=kJ/mole&tag=r21&monomerid=50010357&enzyme=DNA+gyrase+subunit+B&column=ki&startPg=0&Increment=50&submit=Search

> <Ligand HET ID in PDB>


> <PDB ID(s) for Ligand-Target Complex>


> <PubChem CID>
72713302

> <PubChem SID>
103923171

> <ChEBI ID of Ligand>


> <ChEMBL ID of Ligand>
CHEMBL3263601

> <DrugBank ID of Ligand>


> <IUPHAR_GRAC ID of Ligand>


> <KEGG ID of Ligand>


> <ZINC ID of Ligand>
ZINC13446826

> <Number of Protein Chains in Target (>1 implies a multichain complex)>
1

> <BindingDB Target Chain Sequence>
MAAQKNNAPKEYGADSITILEGLEAVRKRPGMYIGSTGERGLHHLIWEVVDNAVDEAMAGFATRVDVKIHADGSVEVRDDGRGIPVEMHATGMPTIDVVMTQLHAGGKFDGETYAVSGGLHGVGVSVVNALSTRLEATVLRDGYEWFQYYDRSVPGKLKQGGETKETGTTIRFWADPEIFETTDYNFETVARRLQEMAFLNKGLTIELTDERVTAEEVVDDVVKDTAEAPKTADEKAAEATGPSKVKHRVFHYPGGLVDYVKHINRTKTPIQQSIIDFDGKGPGHEVEIAMQWNAGYSESVHTFANTINTHEGGTHEEGFRAALTSVVNRYAKDKKLLKDKDPNLTGDDIREGLAAVISVKVAEPQFEGQTKTKLGNTEVKSFVQKICNEQLQHWFEANPAEAKTVVNKAVSSAQARIAARKARELVRRKSATDIGGLPGKLADCRSTDPSKSELYVVEGDSAGGSAKSGRDSMFQAILPLRGKIINVEKARIDRVLKNTEVQSIITALGTGIHDEFDISKLRYHKIVLMADADVDGQHISTLLLTLLFRFMKPLVENGHIFLAQPPLYKLKWQRSEPEFAYSDRERDGLLEAGRAAGKKINVDDGIQRYKGLGEMDAKELWETTMDPSVRVLRQVTLDDAAAADELFSILMGEDVEARRSFITRNAKDVRFLDV

> <PDB ID(s) of Target Chain>
4BAE

> <UniProt (SwissProt) Recommended Name of Target Chain>
DNA gyrase subunit B

> <UniProt (SwissProt) Entry Name of Target Chain>
GYRB_MYCSM

> <UniProt (SwissProt) Primary ID of Target Chain>
P0C559

> <UniProt (SwissProt) Secondary ID(s) of Target Chain>
P48355,Q59555

> <UniProt (SwissProt) Alternative ID(s) of Target Chain>


> <UniProt (TrEMBL) Submitted Name of Target Chain>


> <UniProt (TrEMBL) Entry Name of Target Chain>


> <UniProt (TrEMBL) Primary ID of Target Chain>


> <UniProt (TrEMBL) Secondary ID(s) of Target Chain>


> <UniProt (TrEMBL) Alternative ID(s) of Target Chain>


$$$$

  SciTegic04201612532D

 34 37  0  0  0  0            999 V2000
   -1.2964    1.4973    0.0000 N   0  0
   -2.6111    0.7486    0.0000 C   0  0
   -2.6111   -0.7486    0.0000 C   0  0
   -1.2964   -1.4973    0.0000 C   0  0
    0.0000   -0.7486    0.0000 C   0  0
    1.2964   -1.4973    0.0000 C   0  0
    2.5929   -0.7486    0.0000 C   0  0
    2.5929    0.7486    0.0000 C   0  0
    1.2964    1.4973    0.0000 C   0  0
    0.0000    0.7486    0.0000 C   0  0
   -3.9122   -1.4966    0.0000 C   0  0
   -3.9138   -2.4966    0.0000 O   0  0
   -5.2109   -0.7445    0.0000 N   0  0
   -1.2907   -2.9981    0.0000 N   0  0
   -2.5870   -3.7544    0.0000 C   0  0
   -2.5835   -5.2544    0.0000 C   0  0
   -3.8807   -6.0076    0.0000 C   0  0
   -5.1815   -5.2608    0.0000 C   0  0
   -5.1852   -3.7608    0.0000 C   0  0
   -3.8880   -3.0076    0.0000 C   0  0
   -6.4810   -6.0117    0.0000 N   0  0
   -7.7815   -5.2626    0.0000 C   0  0
   -9.0810   -6.0135    0.0000 C   0  0
  -10.3815   -5.2644    0.0000 C   0  0
  -14.2755   -7.5217    0.0000 N   0  0
  -14.2791   -6.0217    0.0000 C   0  0
  -12.9819   -5.2686    0.0000 C   0  0
  -11.6810   -6.0154    0.0000 N   0  0
  -11.6774   -7.5154    0.0000 C   0  0
  -12.9746   -8.2686    0.0000 C   0  0
   -6.2513   -1.3425    0.0000 N   0  0
  -15.5719   -8.2779    0.0000 C   0  0
  -15.5672   -9.4779    0.0000 C   0  0
    3.6321   -1.3486    0.0000 F   0  0
  1  2  2  0
  2  3  1  0
  3  4  2  0
  4  5  1  0
  5  6  2  0
  6  7  1  0
  7  8  2  0
  8  9  1  0
  9 10  2  0
  1 10  1  0
  5 10  1  0
 11 12  2  0
 11 13  1  0
  3 11  1  0
 15 16  1  0
 16 17  2  0
 17 18  1  0
 18 19  2  0
 19 20  1  0
 15 20  2  0
 22 23  1  0
 23 24  1  0
 21 22  1  0
 25 26  1  0
 26 27  1  0
 27 28  1  0
 28 29  1  0
 29 30  1  0
 25 30  1  0
 24 28  1  0
 18 21  1  0
 14 15  1  0
  4 14  1  0
 13 31  1  0
 25 32  1  0
 32 33  1  0
  7 34  1  0
M  END
> <From> 
www.bindingDB.org

> <BindingDB Reactant_set_id>
50426764

> <Ligand InChI>
InChI=1S/C25H32FN7O/c1-2-32-12-14-33(15-13-32)11-3-10-28-19-5-7-20(8-6-19)30-24-21-16-18(26)4-9-23(21)29-17-22(24)25(34)31-27/h4-9,16-17,28H,2-3,10-15,27H2,1H3,(H,29,30)(H,31,34)

> <Ligand InChI Key>
SEDAYQHCORRHEK-UHFFFAOYSA-N

> <BindingDB MonomerID>
50126391

> <BindingDB Ligand Name>
CHEMBL3628453

> <Target Name Assigned by Curator or DataSource>
DNA gyrase subunit B

> <Target Source Organism According to Curator or DataSource>


> <Ki (nM)>


> <IC50 (nM)>
 1150

> <Kd (nM)>


> <EC50 (nM)>


> <kon (M-1-s-1)>


> <koff (s-1)>


> <pH>


> <Temp C>


> <Curation/DataSource>
ChEMBL

> <Article DOI>
10.1016/j.ejmech.2015.06.032

> <PMID>
26318054

> <PubChem AID>


> <Patent Number>


> <Authors>
Medapi, B; Suryadevara, P; Renuka, J; Sridevi, JP; Yogeeswari, P; Sriram, D

> <Institution>
Birla Institute of Technology&amp;Science

> <Link to Ligand in BindingDB>
http://www.bindingdb.org/bind/chemsearch/marvin/MolStructure.jsp?monomerid=50126391

> <Link to Ligand-Target Pair in BindingDB>
http://www.bindingdb.org/jsp/dbsearch/PrimarySearch_ki.jsp?energyterm=kJ/mole&tag=pol&polymerid=50006452&target=DNA+gyrase+subunit+B&column=ki&startPg=0&Increment=50&submit=Search

> <Link to Ligand-Target Pair in BindingDB>
http://www.bindingdb.org/jsp/dbsearch/PrimarySearch_ki.jsp?energyterm=kJ/mole&tag=r21&monomerid=50126391&enzyme=DNA+gyrase+subunit+B&column=ki&startPg=0&Increment=50&submit=Search

> <Ligand HET ID in PDB>


> <PDB ID(s) for Ligand-Target Complex>


> <PubChem CID>
122193467

> <PubChem SID>
104018467

> <ChEBI ID of Ligand>


> <ChEMBL ID of Ligand>
CHEMBL30567

> <DrugBank ID of Ligand>


> <IUPHAR_GRAC ID of Ligand>


> <KEGG ID of Ligand>


> <ZINC ID of Ligand>
ZINC29208314

> <Number of Protein Chains in Target (>1 implies a multichain complex)>
1

> <BindingDB Target Chain Sequence>
MAAQKNNAPKEYGADSITILEGLEAVRKRPGMYIGSTGERGLHHLIWEVVDNAVDEAMAGFATRVDVKIHADGSVEVRDDGRGIPVEMHATGMPTIDVVMTQLHAGGKFDGETYAVSGGLHGVGVSVVNALSTRLEATVLRDGYEWFQYYDRSVPGKLKQGGETKETGTTIRFWADPEIFETTDYNFETVARRLQEMAFLNKGLTIELTDERVTAEEVVDDVVKDTAEAPKTADEKAAEATGPSKVKHRVFHYPGGLVDYVKHINRTKTPIQQSIIDFDGKGPGHEVEIAMQWNAGYSESVHTFANTINTHEGGTHEEGFRAALTSVVNRYAKDKKLLKDKDPNLTGDDIREGLAAVISVKVAEPQFEGQTKTKLGNTEVKSFVQKICNEQLQHWFEANPAEAKTVVNKAVSSAQARIAARKARELVRRKSATDIGGLPGKLADCRSTDPSKSELYVVEGDSAGGSAKSGRDSMFQAILPLRGKIINVEKARIDRVLKNTEVQSIITALGTGIHDEFDISKLRYHKIVLMADADVDGQHISTLLLTLLFRFMKPLVENGHIFLAQPPLYKLKWQRSEPEFAYSDRERDGLLEAGRAAGKKINVDDGIQRYKGLGEMDAKELWETTMDPSVRVLRQVTLDDAAAADELFSILMGEDVEARRSFITRNAKDVRFLDV

> <PDB ID(s) of Target Chain>
4BAE

> <UniProt (SwissProt) Recommended Name of Target Chain>
DNA gyrase subunit B

> <UniProt (SwissProt) Entry Name of Target Chain>
GYRB_MYCSM

> <UniProt (SwissProt) Primary ID of Target Chain>
P0C559

> <UniProt (SwissProt) Secondary ID(s) of Target Chain>
P48355,Q59555

> <UniProt (SwissProt) Alternative ID(s) of Target Chain>


> <UniProt (TrEMBL) Submitted Name of Target Chain>


> <UniProt (TrEMBL) Entry Name of Target Chain>


> <UniProt (TrEMBL) Primary ID of Target Chain>


> <UniProt (TrEMBL) Secondary ID(s) of Target Chain>


> <UniProt (TrEMBL) Alternative ID(s) of Target Chain>


$$$$

  Mrv0541 11231413392D          

 45 49  0  0  0  0            999 V2000
   10.3798  -21.3479    0.0000 C   0  0  0  0  0  0  0  0  0  0  0  0
    9.6538  -20.9463    0.0000 C   0  0  1  0  0  0  0  0  0  0  0  0
    8.9471  -21.3719    0.0000 C   0  0  2  0  0  0  0  0  0  0  0  0
    8.9600  -22.2007    0.0000 C   0  0  2  0  0  0  0  0  0  0  0  0
    9.6860  -22.6022    0.0000 C   0  0  1  0  0  0  0  0  0  0  0  0
   10.3990  -22.1749    0.0000 O   0  0  0  0  0  0  0  0  0  0  0  0
    9.7003  -23.4270    0.0000 O   0  0  0  0  0  0  0  0  0  0  0  0
   10.4200  -23.8383    0.0000 C   0  0  0  0  0  0  0  0  0  0  0  0
   10.4192  -24.6628    0.0000 C   0  0  0  0  0  0  0  0  0  0  0  0
   11.1348  -23.4240    0.0000 C   0  0  0  0  0  0  0  0  0  0  0  0
   11.8492  -23.8418    0.0000 C   0  0  0  0  0  0  0  0  0  0  0  0
   11.8474  -24.6664    0.0000 C   0  0  0  0  0  0  0  0  0  0  0  0
   11.1322  -25.0779    0.0000 C   0  0  0  0  0  0  0  0  0  0  0  0
   11.1310  -25.8986    0.0000 O   0  0  0  0  0  0  0  0  0  0  0  0
   11.8433  -26.3139    0.0000 C   0  0  0  0  0  0  0  0  0  0  0  0
   12.5585  -25.9025    0.0000 C   0  0  0  0  0  0  0  0  0  0  0  0
   12.5615  -25.0755    0.0000 C   0  0  0  0  0  0  0  0  0  0  0  0
   13.2759  -24.6631    0.0000 O   0  0  0  0  0  0  0  0  0  0  0  0
   11.8409  -27.1389    0.0000 O   0  0  0  0  0  0  0  0  0  0  0  0
   13.2719  -26.3167    0.0000 N   0  0  0  0  0  0  0  0  0  0  0  0
   13.2698  -27.1417    0.0000 C   0  0  0  0  0  0  0  0  0  0  0  0
   12.5544  -27.5523    0.0000 O   0  0  0  0  0  0  0  0  0  0  0  0
   11.2073  -21.3290    0.0000 C   0  0  0  0  0  0  0  0  0  0  0  0
   10.3689  -20.5248    0.0000 C   0  0  0  0  0  0  0  0  0  0  0  0
    9.6388  -20.1215    0.0000 O   0  0  0  0  0  0  0  0  0  0  0  0
   10.3455  -19.6960    0.0000 C   0  0  0  0  0  0  0  0  0  0  0  0
    8.2258  -20.9715    0.0000 O   0  0  0  0  0  0  0  0  0  0  0  0
    8.2527  -22.6253    0.0000 O   0  0  0  0  0  0  0  0  0  0  0  0
    9.7039  -25.0736    0.0000 Cl  0  0  0  0  0  0  0  0  0  0  0  0
    7.5314  -22.2249    0.0000 C   0  0  0  0  0  0  0  0  0  0  0  0
    6.8228  -22.6504    0.0000 C   0  0  0  0  0  0  0  0  0  0  0  0
    7.5174  -21.4000    0.0000 O   0  0  0  0  0  0  0  0  0  0  0  0
    6.1782  -22.1425    0.0000 N   0  0  0  0  0  0  0  0  0  0  0  0
    5.4926  -22.6014    0.0000 C   0  0  0  0  0  0  0  0  0  0  0  0
    5.7172  -23.3952    0.0000 C   0  0  0  0  0  0  0  0  0  0  0  0
    6.5415  -23.4269    0.0000 C   0  0  0  0  0  0  0  0  0  0  0  0
    4.7757  -22.1869    0.0000 C   0  0  0  0  0  0  0  0  0  0  0  0
   13.9833  -27.5559    0.0000 C   0  0  0  0  0  0  0  0  0  0  0  0
   13.9812  -28.3809    0.0000 C   0  0  0  0  0  0  0  0  0  0  0  0
   14.6946  -28.7951    0.0000 C   0  0  0  0  0  0  0  0  0  0  0  0
   14.6888  -29.6177    0.0000 C   0  0  0  0  0  0  0  0  0  0  0  0
   15.4013  -30.0318    0.0000 C   0  0  0  0  0  0  0  0  0  0  0  0
   16.1178  -29.6211    0.0000 C   0  0  0  0  0  0  0  0  0  0  0  0
   16.1173  -28.7918    0.0000 C   0  0  0  0  0  0  0  0  0  0  0  0
   15.4041  -28.3814    0.0000 C   0  0  0  0  0  0  0  0  0  0  0  0
  9 13  2  0  0  0  0
 21 22  2  0  0  0  0
 11 10  1  0  0  0  0
  1 23  1  0  0  0  0
 11 12  2  0  0  0  0
  1 24  1  0  0  0  0
  3  4  1  0  0  0  0
  2 25  1  1  0  0  0
 12 13  1  0  0  0  0
 25 26  1  0  0  0  0
  4  5  1  0  0  0  0
  3 27  1  6  0  0  0
  5  6  1  0  0  0  0
  4 28  1  6  0  0  0
  9 29  1  0  0  0  0
  5  7  1  1  0  0  0
 28 30  1  0  0  0  0
  2  1  1  0  0  0  0
 30 31  1  0  0  0  0
  7  8  1  0  0  0  0
 30 32  2  0  0  0  0
 31 33  1  0  0  0  0
 12 17  1  0  0  0  0
 13 14  1  0  0  0  0
 14 15  1  0  0  0  0
 15 16  1  0  0  0  0
 33 34  1  0  0  0  0
 34 35  2  0  0  0  0
 35 36  1  0  0  0  0
 36 31  2  0  0  0  0
 16 17  2  0  0  0  0
 34 37  1  0  0  0  0
  8  9  1  0  0  0  0
 21 38  1  0  0  0  0
 17 18  1  0  0  0  0
 38 39  2  0  0  0  0
  1  6  1  0  0  0  0
 39 40  1  0  0  0  0
 15 19  2  0  0  0  0
 40 41  2  0  0  0  0
  3  2  1  0  0  0  0
 41 42  1  0  0  0  0
 16 20  1  0  0  0  0
 42 43  2  0  0  0  0
  8 10  2  0  0  0  0
 43 44  1  0  0  0  0
 20 21  1  0  0  0  0
 44 45  2  0  0  0  0
 45 40  1  0  0  0  0
M  END
> <From> 
www.bindingDB.org

> <BindingDB Reactant_set_id>
50607691

> <Ligand InChI>
InChI=1S/C32H31ClN2O10/c1-16-10-13-19(34-16)29(39)44-27-25(38)28(41-4)32(2,3)45-31(27)42-20-14-12-18-24(37)23(30(40)43-26(18)22(20)33)35-21(36)15-11-17-8-6-5-7-9-17/h5-15,25,27-28,31,34,37-38H,1-4H3,(H,35,36)/b15-11+/t25-,27+,28+,31+/m0/s1

> <Ligand InChI Key>
OHUMOGWHGJTPKY-ULGXMYAKSA-N

> <BindingDB MonomerID>
50330297

> <BindingDB Ligand Name>
(2S,3R,4R,5R)-2-(8-chloro-3-cinnamamido-4-hydroxy-2-oxo-2H-chromen-7-yloxy)-4-hydroxy-5-methoxy-6,6-dimethyltetrahydro-2H-pyran-3-yl 5-methyl-1H-pyrrole-2-carboxylate::CHEMBL1275896

> <Target Name Assigned by Curator or DataSource>
DNA Gyrase Subunit B

> <Target Source Organism According to Curator or DataSource>
Escherichia coli

> <Ki (nM)>


> <IC50 (nM)>
 1200

> <Kd (nM)>


> <EC50 (nM)>


> <kon (M-1-s-1)>


> <koff (s-1)>


> <pH>


> <Temp C>


> <Curation/DataSource>
ChEMBL

> <Article DOI>
10.1128/AAC.01235-07

> <PMID>
18347114

> <PubChem AID>


> <Patent Number>


> <Authors>
Anderle, C; Stieger, M; Burrell, M; Reinelt, S; Maxwell, A; Page, M; Heide, L

> <Institution>
Universit&#228;t T&#252;bingen

> <Link to Ligand in BindingDB>
http://www.bindingdb.org/bind/chemsearch/marvin/MolStructure.jsp?monomerid=50330297

> <Link to Ligand-Target Pair in BindingDB>
http://www.bindingdb.org/jsp/dbsearch/PrimarySearch_ki.jsp?energyterm=kJ/mole&tag=pol&polymerid=2630&target=DNA+Gyrase+Subunit+B&column=ki&startPg=0&Increment=50&submit=Search

> <Link to Ligand-Target Pair in BindingDB>
http://www.bindingdb.org/jsp/dbsearch/PrimarySearch_ki.jsp?energyterm=kJ/mole&tag=r21&monomerid=50330297&enzyme=DNA+Gyrase+Subunit+B&column=ki&startPg=0&Increment=50&submit=Search

> <Ligand HET ID in PDB>


> <PDB ID(s) for Ligand-Target Complex>


> <PubChem CID>
54730382

> <PubChem SID>
123109412

> <ChEBI ID of Ligand>


> <ChEMBL ID of Ligand>
CHEMBL1275896

> <DrugBank ID of Ligand>


> <IUPHAR_GRAC ID of Ligand>


> <KEGG ID of Ligand>


> <ZINC ID of Ligand>
ZINC72136395

> <Number of Protein Chains in Target (>1 implies a multichain complex)>
1

> <BindingDB Target Chain Sequence>
MSNSYDSSSIKVLKGLDAVRKRPGMYIGDTDDGTGLHHMVFEVVDNAIDEALAGHCKEII
VTIHADNSVSVQDDGRGIPTGIHPEEGVSAAEVIMTVLHAGGKFDDNSYKVSGGLHGVGV
SVVNALSQKLELVIQREGKIHRQIYEHGVPQAPLAVTGETEKTGTMVRFWPSLETFTNVT
EFEYEILAKRLRELSFLNSGVSIRLRDKRDGKEDHFHYEGGIKAFVEYLNKNKTPIHPNI
FYFSTEKDGIGVEVALQWNDGFQENIYCFTNNIPQRDGGTHLAGFRAAMTRTLNAYMDKE
GYSKKAKVSATGDDAREGLIAVVSVKVPDPKFSSQTKDKLVSSEVKSAVEQQMNELLAEY
LLENPTDAKIVVGKIIDAARAREAARRAREMTRRKGALDLAGLPGKLADCQERDPALSEL
YLVEGDSAGGSAKQGRNRKNQAILPLKGKILNVEKARFDKMLSSQEVATLITALGCGIGR
DEYNPDKLRYHSIIIMTDADVDGSHIRTLLLTFFYRQMPEIVERGHVYIAQPPLYKVKKG
KQEQYIKDDEAMDQYQISIALDGATLHTNASAPALAGEALEKLVSEYNATQKMINRMERR
YPKAMLKELIYQPTLTEADLSDEQTVTRWVNALVSELNDKEQHGSQWKFDVHTNAEQNLF
EPIVRVRTHGVDTDYPLDHEFITGGEYRRICTLGEKLRGLLEEDAFIERGERRQPVASFE
QALDWLVKESRRGLSIQRYKGLGEMNPEQLWETTMDPESRRMLRVTVKDAIAADQLFTTL
MGDAVEPRRAFIEENALKAANIDI

> <PDB ID(s) of Target Chain>
1KZN,3G7E,3NUH,4DUH,4HYP,4KFG,4PRV,4PRX,4PU9,4WUB,4WUC,4WUD,4XTJ,4ZVI,5L3J,5MMN,5MMO,5MMP,5Z4H,5Z4O,5Z9B,5Z9E,5Z9F,5Z9L,5Z9M,5Z9N,5Z9Q,6ENG,6F86,6F8J,6F94,6F96

> <UniProt (SwissProt) Recommended Name of Target Chain>
DNA gyrase subunit B

> <UniProt (SwissProt) Entry Name of Target Chain>
GYRB_ECOLI

> <UniProt (SwissProt) Primary ID of Target Chain>
P0AES6

> <UniProt (SwissProt) Secondary ID(s) of Target Chain>
O08438,P06982,Q2M811

> <UniProt (SwissProt) Alternative ID(s) of Target Chain>


> <UniProt (TrEMBL) Submitted Name of Target Chain>


> <UniProt (TrEMBL) Entry Name of Target Chain>


> <UniProt (TrEMBL) Primary ID of Target Chain>


> <UniProt (TrEMBL) Secondary ID(s) of Target Chain>


> <UniProt (TrEMBL) Alternative ID(s) of Target Chain>


$$$$

  SciTegic12131614172D

 27 31  0  0  0  0            999 V2000
   -1.0028    1.5132    0.0000 N   0  0
   -2.3155    0.7475    0.0000 C   0  0
   -2.3155   -0.7475    0.0000 C   0  0
   -1.0028   -1.5132    0.0000 C   0  0
    0.2917    0.7475    0.0000 C   0  0
    0.2917   -0.7475    0.0000 C   0  0
    1.7138   -1.2033    0.0000 C   0  0
    2.5889    0.0182    0.0000 N   0  0
    1.7138    1.2033    0.0000 N   0  0
   -0.9982   -3.0140    0.0000 C   0  0
   -2.2894   -3.7767    0.0000 C   0  0
   -2.2745   -5.2767    0.0000 C   0  0
   -0.9680   -6.0137    0.0000 C   0  0
    0.3235   -5.2508    0.0000 C   0  0
    0.3086   -3.7509    0.0000 C   0  0
    2.1852   -2.6281    0.0000 C   0  0
   -3.3560    1.3452    0.0000 O   0  0
    3.5643   -3.1717    0.0000 C   0  0
    3.4539   -4.6676    0.0000 N   0  0
    1.9971   -5.0249    0.0000 C   0  0
    1.2071   -3.7498    0.0000 S   0  0
    1.4296   -6.4142    0.0000 C   0  0
    2.2547   -7.6609    0.0000 C   0  0
    1.5846   -9.0029    0.0000 C   0  0
    0.0873   -9.0936    0.0000 C   0  0
   -0.7398   -7.8422    0.0000 N   0  0
   -0.0697   -6.5002    0.0000 C   0  0
  6  4  1  0
  5  1  1  0
  1  2  1  0
  2  3  1  0
  3  4  2  0
  5  6  2  0
  6  7  1  0
  7  8  2  0
  8  9  1  0
  9  5  1  0
 10 11  2  0
 11 12  1  0
 12 13  2  0
 13 14  1  0
 14 15  2  0
 15 10  1  0
  4 10  1  0
  7 16  1  0
  2 17  2  0
 16 18  2  0
 18 19  1  0
 19 20  2  0
 20 21  1  0
 21 16  1  0
 22 23  2  0
 23 24  1  0
 24 25  2  0
 25 26  1  0
 26 27  2  0
 27 22  1  0
 20 22  1  0
M  END
> <From> 
www.bindingDB.org

> <BindingDB Reactant_set_id>
50498671

> <Ligand InChI>
InChI=1S/C20H13N5OS/c26-16-9-14(12-5-2-1-3-6-12)17-18(24-25-19(17)23-16)15-11-22-20(27-15)13-7-4-8-21-10-13/h1-11H,(H2,23,24,25,26)

> <Ligand InChI Key>
GPTXKTBHBIQZEL-UHFFFAOYSA-N

> <BindingDB MonomerID>
50143186

> <BindingDB Ligand Name>
CHEMBL3759862

> <Target Name Assigned by Curator or DataSource>
DNA gyrase

> <Target Source Organism According to Curator or DataSource>
Staphylococcus aureus

> <Ki (nM)>


> <IC50 (nM)>
 1315

> <Kd (nM)>


> <EC50 (nM)>


> <kon (M-1-s-1)>


> <koff (s-1)>


> <pH>


> <Temp C>


> <Curation/DataSource>
ChEMBL

> <Article DOI>
10.1021/acsmedchemlett.5b00368

> <PMID>
27096044

> <PubChem AID>


> <Patent Number>


> <Authors>
Cross, JB; Zhang, J; Yang, Q; Mesleh, MF; Romero, JA; Wang, B; Bevan, D; Poutsiaka, KM; Epie, F; Moy, T; Daniel, A; Shotwell, J; Chamberlain, B; Carter, N; Andersen, O; Barker, J; Ryan, MD; Metcalf, CA; Silverman, J; Nguyen, K; Lippa, B; Dolle, RE

> <Institution>
Cubist Pharmaceuticals, Inc.

> <Link to Ligand in BindingDB>
http://www.bindingdb.org/bind/chemsearch/marvin/MolStructure.jsp?monomerid=50143186

> <Link to Ligand-Target Pair in BindingDB>
http://www.bindingdb.org/jsp/dbsearch/PrimarySearch_ki.jsp?energyterm=kJ/mole&tag=pol&polymerid=2626&target=DNA+gyrase&column=ki&startPg=0&Increment=50&submit=Search

> <Link to Ligand-Target Pair in BindingDB>
http://www.bindingdb.org/jsp/dbsearch/PrimarySearch_ki.jsp?energyterm=kJ/mole&tag=r21&monomerid=50143186&enzyme=DNA+gyrase&column=ki&startPg=0&Increment=50&submit=Search

> <Ligand HET ID in PDB>


> <PDB ID(s) for Ligand-Target Complex>


> <PubChem CID>
117072442

> <PubChem SID>
336952905

> <ChEBI ID of Ligand>


> <ChEMBL ID of Ligand>


> <DrugBank ID of Ligand>


> <IUPHAR_GRAC ID of Ligand>


> <KEGG ID of Ligand>


> <ZINC ID of Ligand>


> <Number of Protein Chains in Target (>1 implies a multichain complex)>
1

> <BindingDB Target Chain Sequence>
MVTALSDVNNTDNYGAGQIQVLEGLEAVRKRPGMYIGSTSERGLHHLVWEIVDNSIDEALAGYANQIEVVIEKDNWIKVTDNGRGIPVDIQEKMGRPAVEVILTVLHAGGKFGGGGYKVSGGLHGVGSSVVNALSQDLEVYVHRNETIYHQAYKKGVPQFDLKEVGTTDKTGTVIRFKADGEIFTETTVYNYETLQQRIRELAFLNKGIQITLRDERDEENVREDSYHYEGGIKSYVELLNENKEPIHDEPIYIHQSKDDIEVEIAIQYNSGYATNLLTYANNIHTYEGGTHEDGFKRALTRVLNSYGLSSKIMKEEKDRLSGEDTREGMTAIISIKHGDPQFEGQTKTKLGNSEVRQVVDKLFSEHFERFLYENPQVARTVVEKGIMAARARVAAKKAREVTRRKSALDVASLPGKLADCSSKSPEECEIFLVEGDSAGGSTKSGRDSRTQAILPLRGKILNVEKARLDRILNNNEIRQMITAFGTGIGGDFDLAKARYHKIVIMTDADVDGAHIRTLLLTFFYRFMRPLIEAGYVYIAQPPLYKLTQGKQKYYVYNDRELDKLKSELNPTPKWSIARYKGLGEMNADQLWETTMNPEHRALLQVKLEDAIEADQTFEMLMGDVVENRRQFIEDNAVYANLDF

> <PDB ID(s) of Target Chain>


> <UniProt (SwissProt) Recommended Name of Target Chain>
DNA gyrase subunit B

> <UniProt (SwissProt) Entry Name of Target Chain>
GYRB_STAAU

> <UniProt (SwissProt) Primary ID of Target Chain>
P0A0K8

> <UniProt (SwissProt) Secondary ID(s) of Target Chain>
P20832

> <UniProt (SwissProt) Alternative ID(s) of Target Chain>


> <UniProt (TrEMBL) Submitted Name of Target Chain>


> <UniProt (TrEMBL) Entry Name of Target Chain>


> <UniProt (TrEMBL) Primary ID of Target Chain>


> <UniProt (TrEMBL) Secondary ID(s) of Target Chain>


> <UniProt (TrEMBL) Alternative ID(s) of Target Chain>


$$$$

  SciTegic04201612532D

 34 37  0  0  0  0            999 V2000
   -1.2964    1.4973    0.0000 N   0  0
   -2.6111    0.7486    0.0000 C   0  0
   -2.6111   -0.7486    0.0000 C   0  0
   -1.2964   -1.4973    0.0000 C   0  0
    0.0000   -0.7486    0.0000 C   0  0
    1.2964   -1.4973    0.0000 C   0  0
    2.5929   -0.7486    0.0000 C   0  0
    2.5929    0.7486    0.0000 C   0  0
    1.2964    1.4973    0.0000 C   0  0
    0.0000    0.7486    0.0000 C   0  0
   -3.9122   -1.4966    0.0000 C   0  0
   -4.9506   -0.8952    0.0000 O   0  0
   -1.2907   -2.9981    0.0000 N   0  0
   -2.5870   -3.7544    0.0000 C   0  0
   -2.5835   -5.2544    0.0000 C   0  0
   -3.8807   -6.0076    0.0000 C   0  0
   -5.1815   -5.2608    0.0000 C   0  0
   -5.1852   -3.7608    0.0000 C   0  0
   -3.8880   -3.0076    0.0000 C   0  0
   -6.4810   -6.0117    0.0000 N   0  0
   -7.7815   -5.2626    0.0000 C   0  0
   -9.0810   -6.0135    0.0000 C   0  0
  -10.3815   -5.2644    0.0000 C   0  0
  -14.2755   -7.5217    0.0000 N   0  0
  -14.2791   -6.0217    0.0000 C   0  0
  -12.9819   -5.2686    0.0000 C   0  0
  -11.6810   -6.0154    0.0000 N   0  0
  -11.6774   -7.5154    0.0000 C   0  0
  -12.9746   -8.2686    0.0000 C   0  0
   -3.9138   -2.4966    0.0000 O   0  0
  -15.5719   -8.2779    0.0000 C   0  0
  -15.5672   -9.4779    0.0000 C   0  0
    3.8942   -1.4964    0.0000 O   0  0
    4.9326   -0.8949    0.0000 C   0  0
  1  2  2  0
  2  3  1  0
  3  4  2  0
  4  5  1  0
  5  6  2  0
  6  7  1  0
  7  8  2  0
  8  9  1  0
  9 10  2  0
  1 10  1  0
  5 10  1  0
 11 12  2  0
  3 11  1  0
 14 15  1  0
 15 16  2  0
 16 17  1  0
 17 18  2  0
 18 19  1  0
 14 19  2  0
 21 22  1  0
 22 23  1  0
 20 21  1  0
 24 25  1  0
 25 26  1  0
 26 27  1  0
 27 28  1  0
 28 29  1  0
 24 29  1  0
 23 27  1  0
 17 20  1  0
 13 14  1  0
  4 13  1  0
 11 30  1  0
 24 31  1  0
 31 32  1  0
 33 34  1  0
  7 33  1  0
M  END
> <From> 
www.bindingDB.org

> <BindingDB Reactant_set_id>
50426751

> <Ligand InChI>
InChI=1S/C26H33N5O3/c1-3-30-13-15-31(16-14-30)12-4-11-27-19-5-7-20(8-6-19)29-25-22-17-21(34-2)9-10-24(22)28-18-23(25)26(32)33/h5-10,17-18,27H,3-4,11-16H2,1-2H3,(H,28,29)(H,32,33)

> <Ligand InChI Key>
RKFQKYUZABSXOD-UHFFFAOYSA-N

> <BindingDB MonomerID>
50126177

> <BindingDB Ligand Name>
CHEMBL3628527

> <Target Name Assigned by Curator or DataSource>
DNA gyrase subunit B

> <Target Source Organism According to Curator or DataSource>


> <Ki (nM)>


> <IC50 (nM)>
 1320

> <Kd (nM)>


> <EC50 (nM)>


> <kon (M-1-s-1)>


> <koff (s-1)>


> <pH>


> <Temp C>


> <Curation/DataSource>
ChEMBL

> <Article DOI>
10.1016/j.ejmech.2015.06.032

> <PMID>
26318054

> <PubChem AID>


> <Patent Number>


> <Authors>
Medapi, B; Suryadevara, P; Renuka, J; Sridevi, JP; Yogeeswari, P; Sriram, D

> <Institution>
Birla Institute of Technology&amp;Science

> <Link to Ligand in BindingDB>
http://www.bindingdb.org/bind/chemsearch/marvin/MolStructure.jsp?monomerid=50126177

> <Link to Ligand-Target Pair in BindingDB>
http://www.bindingdb.org/jsp/dbsearch/PrimarySearch_ki.jsp?energyterm=kJ/mole&tag=pol&polymerid=50006452&target=DNA+gyrase+subunit+B&column=ki&startPg=0&Increment=50&submit=Search

> <Link to Ligand-Target Pair in BindingDB>
http://www.bindingdb.org/jsp/dbsearch/PrimarySearch_ki.jsp?energyterm=kJ/mole&tag=r21&monomerid=50126177&enzyme=DNA+gyrase+subunit+B&column=ki&startPg=0&Increment=50&submit=Search

> <Ligand HET ID in PDB>


> <PDB ID(s) for Ligand-Target Complex>


> <PubChem CID>
122193528

> <PubChem SID>
321902384

> <ChEBI ID of Ligand>


> <ChEMBL ID of Ligand>


> <DrugBank ID of Ligand>


> <IUPHAR_GRAC ID of Ligand>


> <KEGG ID of Ligand>


> <ZINC ID of Ligand>


> <Number of Protein Chains in Target (>1 implies a multichain complex)>
1

> <BindingDB Target Chain Sequence>
MAAQKNNAPKEYGADSITILEGLEAVRKRPGMYIGSTGERGLHHLIWEVVDNAVDEAMAGFATRVDVKIHADGSVEVRDDGRGIPVEMHATGMPTIDVVMTQLHAGGKFDGETYAVSGGLHGVGVSVVNALSTRLEATVLRDGYEWFQYYDRSVPGKLKQGGETKETGTTIRFWADPEIFETTDYNFETVARRLQEMAFLNKGLTIELTDERVTAEEVVDDVVKDTAEAPKTADEKAAEATGPSKVKHRVFHYPGGLVDYVKHINRTKTPIQQSIIDFDGKGPGHEVEIAMQWNAGYSESVHTFANTINTHEGGTHEEGFRAALTSVVNRYAKDKKLLKDKDPNLTGDDIREGLAAVISVKVAEPQFEGQTKTKLGNTEVKSFVQKICNEQLQHWFEANPAEAKTVVNKAVSSAQARIAARKARELVRRKSATDIGGLPGKLADCRSTDPSKSELYVVEGDSAGGSAKSGRDSMFQAILPLRGKIINVEKARIDRVLKNTEVQSIITALGTGIHDEFDISKLRYHKIVLMADADVDGQHISTLLLTLLFRFMKPLVENGHIFLAQPPLYKLKWQRSEPEFAYSDRERDGLLEAGRAAGKKINVDDGIQRYKGLGEMDAKELWETTMDPSVRVLRQVTLDDAAAADELFSILMGEDVEARRSFITRNAKDVRFLDV

> <PDB ID(s) of Target Chain>
4BAE

> <UniProt (SwissProt) Recommended Name of Target Chain>
DNA gyrase subunit B

> <UniProt (SwissProt) Entry Name of Target Chain>
GYRB_MYCSM

> <UniProt (SwissProt) Primary ID of Target Chain>
P0C559

> <UniProt (SwissProt) Secondary ID(s) of Target Chain>
P48355,Q59555

> <UniProt (SwissProt) Alternative ID(s) of Target Chain>


> <UniProt (TrEMBL) Submitted Name of Target Chain>


> <UniProt (TrEMBL) Entry Name of Target Chain>


> <UniProt (TrEMBL) Primary ID of Target Chain>


> <UniProt (TrEMBL) Secondary ID(s) of Target Chain>


> <UniProt (TrEMBL) Alternative ID(s) of Target Chain>


$$$$

  Mrv0541 11241408262D          

 31 34  0  0  0  0            999 V2000
    7.0820  -12.0675    0.0000 O   0  0  0  0  0  0  0  0  0  0  0  0
    7.4790  -11.3417    0.0000 C   0  0  0  0  0  0  0  0  0  0  0  0
    8.3038  -11.3247    0.0000 C   0  0  0  0  0  0  0  0  0  0  0  0
    2.3152  -12.3708    0.0000 C   0  0  0  0  0  0  0  0  0  0  0  0
    2.3140  -13.1981    0.0000 C   0  0  0  0  0  0  0  0  0  0  0  0
    3.0289  -13.6110    0.0000 C   0  0  0  0  0  0  0  0  0  0  0  0
    3.0271  -11.9580    0.0000 C   0  0  0  0  0  0  0  0  0  0  0  0
    4.5337  -12.1131    0.0000 N   0  0  0  0  0  0  0  0  0  0  0  0
    3.7424  -12.3671    0.0000 C   0  0  0  0  0  0  0  0  0  0  0  0
    3.7406  -13.1989    0.0000 N   0  0  0  0  0  0  0  0  0  0  0  0
    4.5318  -13.4563    0.0000 C   0  0  0  0  0  0  0  0  0  0  0  0
    5.0198  -12.7827    0.0000 C   0  0  0  0  0  0  0  0  0  0  0  0
    1.6027  -11.9586    0.0000 C   0  0  0  0  0  0  0  0  0  0  0  0
    1.6039  -11.1325    0.0000 C   0  0  0  0  0  0  0  0  0  0  0  0
    0.8902  -10.7202    0.0000 N   0  0  0  0  0  0  0  0  0  0  0  0
    0.1748  -11.1330    0.0000 C   0  0  0  0  0  0  0  0  0  0  0  0
    0.1776  -11.9622    0.0000 N   0  0  0  0  0  0  0  0  0  0  0  0
    0.8920  -12.3707    0.0000 C   0  0  0  0  0  0  0  0  0  0  0  0
    3.0309  -14.4332    0.0000 C   0  0  0  0  0  0  0  0  0  0  0  0
    2.3150  -14.8455    0.0000 N   0  0  0  0  0  0  0  0  0  0  0  0
    2.3151  -15.6698    0.0000 C   0  0  0  0  0  0  0  0  0  0  0  0
    3.0303  -16.0827    0.0000 C   0  0  0  0  0  0  0  0  0  0  0  0
    3.7469  -15.6654    0.0000 C   0  0  0  0  0  0  0  0  0  0  0  0
    3.7433  -14.8425    0.0000 N   0  0  0  0  0  0  0  0  0  0  0  0
    5.8448  -12.7824    0.0000 N   0  0  0  0  0  0  0  0  0  0  0  0
    6.2570  -12.0678    0.0000 C   0  0  0  0  0  0  0  0  0  0  0  0
    5.8442  -11.3535    0.0000 O   0  0  0  0  0  0  0  0  0  0  0  0
   -0.5403  -10.7216    0.0000 N   0  0  0  0  0  0  0  0  0  0  0  0
   -0.5416   -9.8966    0.0000 C   0  0  0  0  0  0  0  0  0  0  0  0
   -1.2542  -11.1352    0.0000 C   0  0  0  0  0  0  0  0  0  0  0  0
    1.6006  -16.0823    0.0000 C   0  0  0  0  0  0  0  0  0  0  0  0
  1  2  1  0  0  0  0
  2  3  1  0  0  0  0
  4 13  1  0  0  0  0
  9  7  1  0  0  0  0
  8  9  2  0  0  0  0
 19 20  2  0  0  0  0
 10 11  1  0  0  0  0
 20 21  1  0  0  0  0
 11 12  2  0  0  0  0
 21 22  2  0  0  0  0
 12  8  1  0  0  0  0
 22 23  1  0  0  0  0
  7  4  2  0  0  0  0
 23 24  2  0  0  0  0
 24 19  1  0  0  0  0
  6 19  1  0  0  0  0
  9 10  1  0  0  0  0
 12 25  1  0  0  0  0
 13 14  2  0  0  0  0
 25 26  1  0  0  0  0
 26 27  2  0  0  0  0
 14 15  1  0  0  0  0
  5  6  2  0  0  0  0
 15 16  2  0  0  0  0
  6 10  1  0  0  0  0
 16 28  1  0  0  0  0
 16 17  1  0  0  0  0
 28 29  1  0  0  0  0
  4  5  1  0  0  0  0
 28 30  1  0  0  0  0
 17 18  2  0  0  0  0
 18 13  1  0  0  0  0
 21 31  1  0  0  0  0
 26  1  1  0  0  0  0
M  END
> <From> 
www.bindingDB.org

> <BindingDB Reactant_set_id>
50904837

> <Ligand InChI>
InChI=1S/C21H22N8O2/c1-5-31-21(30)27-17-12-29-16(19-22-7-6-13(2)25-19)8-14(9-18(29)26-17)15-10-23-20(24-11-15)28(3)4/h6-12H,5H2,1-4H3,(H,27,30)

> <Ligand InChI Key>
RIPLRMVSSHSJMY-UHFFFAOYSA-N

> <BindingDB MonomerID>
50378446

> <BindingDB Ligand Name>
CHEMBL577238

> <Target Name Assigned by Curator or DataSource>
DNA gyrase subunit B

> <Target Source Organism According to Curator or DataSource>
Streptococcus pneumoniae

> <Ki (nM)>


> <IC50 (nM)>
 1380

> <Kd (nM)>


> <EC50 (nM)>


> <kon (M-1-s-1)>


> <koff (s-1)>


> <pH>


> <Temp C>


> <Curation/DataSource>
ChEMBL

> <Article DOI>
10.1016/j.bmcl.2009.07.141

> <PMID>
19683922

> <PubChem AID>


> <Patent Number>


> <Authors>
Starr, JT; Sciotti, RJ; Hanna, DL; Huband, MD; Mullins, LM; Cai, H; Gage, JW; Lockard, M; Rauckhorst, MR; Owen, RM; Lall, MS; Tomilo, M; Chen, H; McCurdy, SP; Barbachyn, MR

> <Institution>
Pfizer Inc.

> <Link to Ligand in BindingDB>
http://www.bindingdb.org/bind/chemsearch/marvin/MolStructure.jsp?monomerid=50378446

> <Link to Ligand-Target Pair in BindingDB>
http://www.bindingdb.org/jsp/dbsearch/PrimarySearch_ki.jsp?energyterm=kJ/mole&tag=pol&polymerid=50005944&target=DNA+gyrase+subunit+B&column=ki&startPg=0&Increment=50&submit=Search

> <Link to Ligand-Target Pair in BindingDB>
http://www.bindingdb.org/jsp/dbsearch/PrimarySearch_ki.jsp?energyterm=kJ/mole&tag=r21&monomerid=50378446&enzyme=DNA+gyrase+subunit+B&column=ki&startPg=0&Increment=50&submit=Search

> <Ligand HET ID in PDB>


> <PDB ID(s) for Ligand-Target Complex>


> <PubChem CID>
45484844

> <PubChem SID>
160857529

> <ChEBI ID of Ligand>


> <ChEMBL ID of Ligand>
CHEMBL577238

> <DrugBank ID of Ligand>


> <IUPHAR_GRAC ID of Ligand>


> <KEGG ID of Ligand>


> <ZINC ID of Ligand>
ZINC45300930

> <Number of Protein Chains in Target (>1 implies a multichain complex)>
1

> <BindingDB Target Chain Sequence>
MTEEIKNLQAQDYDASQIQVLEGLEAVRMRPGMYIGSTSKEGLHHLVWEIVDNSIDEALAGFASHIQVFIEPDDSITVVDDGRGIPVDIQEKTGRPAVETVFTVLHAGGKFGGGGYKVSGGLHGVGSSVVNALSTQLDVHVHKNGKIHYQEYRRGHVVADLEIVGDTDKTGTTVHFTPDPKIFTETTIFDFDKLNKRIQELAFLNRGLQISITDKRQGLEQTKHYHYEGGIASYVEYINENKDVIFDTPIYTDGEMDDITVEVAMQYTTGYHENVMSFANNIHTHEGGTHEQGFRTALTRVINDYARKNKLLKDNEDNLTGEDVREGLTAVISVKHPNPQFEGQTKTKLGNSEVVKITNRLFSEAFSDFLMENPQIAKRIVEKGILAAKARVAAKRAREVTRKKSGLEISNLPGKLADCSSNNPAETELFIVEGDSAGGSAKSGRNREFQAILPIRGKILNVEKASMDKILANEEIRSLFTAMGTGFGAEFDVSKARYQKLVLMTDADVDGAHIRTLLLTLIYRYMKPILEAGYVYIAQPPIYGVKVGSEIKEYIQPGADQEIKLQEALARYSEGRTKPTIQRYKGLGEMDDHQLWETTMDPEHRLMARVSVDDAAEADKIFDMLMGDRVEPRREFIEENAVYSTLDV

> <PDB ID(s) of Target Chain>
4Z2C,4Z2D,4Z2E

> <UniProt (SwissProt) Recommended Name of Target Chain>
DNA gyrase subunit B

> <UniProt (SwissProt) Entry Name of Target Chain>
GYRB_STRPN

> <UniProt (SwissProt) Primary ID of Target Chain>
P0A4L9

> <UniProt (SwissProt) Secondary ID(s) of Target Chain>
P48373

> <UniProt (SwissProt) Alternative ID(s) of Target Chain>


> <UniProt (TrEMBL) Submitted Name of Target Chain>


> <UniProt (TrEMBL) Entry Name of Target Chain>


> <UniProt (TrEMBL) Primary ID of Target Chain>


> <UniProt (TrEMBL) Secondary ID(s) of Target Chain>


> <UniProt (TrEMBL) Alternative ID(s) of Target Chain>


$$$$

  SciTegic09291413392D

 28 31  0  0  0  0            999 V2000
   16.9341  -14.3880    0.0000 C   0  0
   21.2452  -15.3524    0.0000 N   0  0
   19.0497  -15.6133    0.0000 C   0  0
   17.6855  -18.1369    0.0000 C   0  0
   22.9544  -15.3001    0.0000 C   0  0
   22.5418  -14.5964    0.0000 O   0  0
   20.4646  -15.6097    0.0000 C   0  0
   17.6412  -13.9793    0.0000 C   0  0
   20.4694  -16.4324    0.0000 C   0  0
   17.6368  -15.6146    0.0000 C   0  0
   17.9357  -18.9135    0.0000 C   0  0
   23.7710  -15.2952    0.0000 N   0  0
   18.7524  -18.9142    0.0000 O   0  0
   18.3421  -16.8402    0.0000 O   0  0
   19.7592  -16.8411    0.0000 N   0  0
   18.3414  -17.6570    0.0000 C   0  0  1  0  0  0
   19.0037  -18.1380    0.0000 C   0  0
   18.3455  -15.2053    0.0000 C   0  0
   19.0486  -16.4324    0.0000 C   0  0
   16.9370  -15.2090    0.0000 N   0  0
   19.7575  -15.2047    0.0000 C   0  0
   18.3468  -14.3875    0.0000 C   0  0
   22.5503  -16.0088    0.0000 N   0  0
   21.7335  -16.0136    0.0000 C   0  0
   24.9919  -14.5817    0.0000 C   0  0
   24.1753  -14.5866    0.0000 C   0  0
   21.2531  -16.6847    0.0000 S   0  0
   19.7561  -14.3875    0.0000 C   0  0
  7 21  2  0
  3 18  1  0
  9 27  1  0
 16  4  1  0
  7  9  1  0
 26 25  1  0
 17 16  1  0
 18 22  2  0
 10 18  1  0
 24  2  2  0
 23  5  1  0
  5 12  1  0
  2  7  1  0
 22  8  1  0
 27 24  1  0
 20 10  2  0
 15  9  2  0
  4 11  1  0
  5  6  2  0
 19 15  1  0
 21  3  1  0
 19 14  1  0
  3 19  2  0
 12 26  1  0
 13 17  1  0
  8  1  2  0
 16 14  1  1
 11 13  1  0
 24 23  1  0
  1 20  1  0
 21 28  1  0
M  END
> <From> 
www.bindingDB.org

> <BindingDB Reactant_set_id>
50089909

> <Ligand InChI>
InChI=1S/C19H21N5O3S/c1-3-21-18(25)24-19-22-15-11(2)14(12-5-4-7-20-9-12)16(23-17(15)28-19)27-13-6-8-26-10-13/h4-5,7,9,13H,3,6,8,10H2,1-2H3,(H2,21,22,24,25)/t13-/m1/s1

> <Ligand InChI Key>
XFFJZWUAPDUWJO-CYBMUJFWSA-N

> <BindingDB MonomerID>
50010353

> <BindingDB Ligand Name>
CHEMBL3263597

> <Target Name Assigned by Curator or DataSource>
DNA gyrase subunit B

> <Target Source Organism According to Curator or DataSource>


> <Ki (nM)>


> <IC50 (nM)>
 1400

> <Kd (nM)>


> <EC50 (nM)>


> <kon (M-1-s-1)>


> <koff (s-1)>


> <pH>


> <Temp C>


> <Curation/DataSource>
ChEMBL

> <Article DOI>
10.1021/jm401268f

> <PMID>
24088190

> <PubChem AID>


> <Patent Number>


> <Authors>
Ahuja, V; Ahuja, V; Basavarajappa, H; Basavarajappa, H; P, SH; P, SH; Boriack-Sjodin, PA; Boriack-Sjodin, PA; McKinney, D; McKinney, D; Ganguly, S; Ganguly, S; Kranthi, U; Kranthi, U; Gaonkar, S; Gaonkar, S; Jena, Lk; Jena, Lk; Ghorpade, SR; Ghorpade, SR; Ghosh, A; Ghosh, A; Barde, S; Barde, S; Kale, MG; Kale, MG; Koushik, K; Koushik, K; Kumar, CN; Kumar, CN; Manjunatha, MR; Manjunatha, MR; Ogg, D; Ogg, D; Panduga, V; Panduga, V; Ramya, VK; Ramya, VK; Reddy, J; Reddy, J; Kumar, KN; Kumar, KN; Giridhar, J; Giridhar, J; Rudrapatna, S; Rudrapatna, S; Sharma, S; Sharma, S; Tucker, JA; Tucker, JA; Vachaspati, P; Vachaspati, P; Waterson, D; Waterson, D; de Sousa, SM; de Sousa, SM

> <Institution>
AstraZeneca India Pvt. Ltd.

> <Link to Ligand in BindingDB>
http://www.bindingdb.org/bind/chemsearch/marvin/MolStructure.jsp?monomerid=50010353

> <Link to Ligand-Target Pair in BindingDB>
http://www.bindingdb.org/jsp/dbsearch/PrimarySearch_ki.jsp?energyterm=kJ/mole&tag=pol&polymerid=50006452&target=DNA+gyrase+subunit+B&column=ki&startPg=0&Increment=50&submit=Search

> <Link to Ligand-Target Pair in BindingDB>
http://www.bindingdb.org/jsp/dbsearch/PrimarySearch_ki.jsp?energyterm=kJ/mole&tag=r21&monomerid=50010353&enzyme=DNA+gyrase+subunit+B&column=ki&startPg=0&Increment=50&submit=Search

> <Ligand HET ID in PDB>


> <PDB ID(s) for Ligand-Target Complex>


> <PubChem CID>
72713298

> <PubChem SID>
103923167

> <ChEBI ID of Ligand>


> <ChEMBL ID of Ligand>
CHEMBL3263597

> <DrugBank ID of Ligand>


> <IUPHAR_GRAC ID of Ligand>


> <KEGG ID of Ligand>


> <ZINC ID of Ligand>
ZINC13446689

> <Number of Protein Chains in Target (>1 implies a multichain complex)>
1

> <BindingDB Target Chain Sequence>
MAAQKNNAPKEYGADSITILEGLEAVRKRPGMYIGSTGERGLHHLIWEVVDNAVDEAMAGFATRVDVKIHADGSVEVRDDGRGIPVEMHATGMPTIDVVMTQLHAGGKFDGETYAVSGGLHGVGVSVVNALSTRLEATVLRDGYEWFQYYDRSVPGKLKQGGETKETGTTIRFWADPEIFETTDYNFETVARRLQEMAFLNKGLTIELTDERVTAEEVVDDVVKDTAEAPKTADEKAAEATGPSKVKHRVFHYPGGLVDYVKHINRTKTPIQQSIIDFDGKGPGHEVEIAMQWNAGYSESVHTFANTINTHEGGTHEEGFRAALTSVVNRYAKDKKLLKDKDPNLTGDDIREGLAAVISVKVAEPQFEGQTKTKLGNTEVKSFVQKICNEQLQHWFEANPAEAKTVVNKAVSSAQARIAARKARELVRRKSATDIGGLPGKLADCRSTDPSKSELYVVEGDSAGGSAKSGRDSMFQAILPLRGKIINVEKARIDRVLKNTEVQSIITALGTGIHDEFDISKLRYHKIVLMADADVDGQHISTLLLTLLFRFMKPLVENGHIFLAQPPLYKLKWQRSEPEFAYSDRERDGLLEAGRAAGKKINVDDGIQRYKGLGEMDAKELWETTMDPSVRVLRQVTLDDAAAADELFSILMGEDVEARRSFITRNAKDVRFLDV

> <PDB ID(s) of Target Chain>
4BAE

> <UniProt (SwissProt) Recommended Name of Target Chain>
DNA gyrase subunit B

> <UniProt (SwissProt) Entry Name of Target Chain>
GYRB_MYCSM

> <UniProt (SwissProt) Primary ID of Target Chain>
P0C559

> <UniProt (SwissProt) Secondary ID(s) of Target Chain>
P48355,Q59555

> <UniProt (SwissProt) Alternative ID(s) of Target Chain>


> <UniProt (TrEMBL) Submitted Name of Target Chain>


> <UniProt (TrEMBL) Entry Name of Target Chain>


> <UniProt (TrEMBL) Primary ID of Target Chain>


> <UniProt (TrEMBL) Secondary ID(s) of Target Chain>


> <UniProt (TrEMBL) Alternative ID(s) of Target Chain>


$$$$

  SciTegic09081514182D

 22 24  0  0  0  0            999 V2000
    1.2990   -0.7500    0.0000 C   0  0
    1.2990    0.7500    0.0000 C   0  0
    0.0000    1.5000    0.0000 C   0  0
   -1.2990    0.7500    0.0000 C   0  0
   -1.2990   -0.7500    0.0000 C   0  0
    0.0000   -1.5000    0.0000 C   0  0
   -2.5987   -1.5004    0.0000 C   0  0
   -3.9511   -0.8815    0.0000 S   0  0
   -4.9530   -1.9978    0.0000 C   0  0
   -4.2010   -3.2957    0.0000 C   0  0
   -2.7343   -2.9815    0.0000 C   0  0
   -4.8053   -4.6666    0.0000 C   0  0
   -4.0971   -5.6353    0.0000 O   0  0
   -5.9983   -4.7960    0.0000 N   0  0
   -6.4430   -1.8405    0.0000 N   0  0
   -7.0537   -0.4695    0.0000 C   0  0
   -8.5462   -0.3119    0.0000 C   0  0
   -6.3482    0.5012    0.0000 O   0  0
   -9.2765    0.9837    0.0000 C   0  0
  -10.7432    0.6695    0.0000 C   0  0
  -10.8977   -0.8225    0.0000 C   0  0
   -9.5264   -1.4305    0.0000 S   0  0
  1  2  2  0
  2  3  1  0
  3  4  2  0
  4  5  1  0
  5  6  2  0
  6  1  1  0
  7  8  1  0
  8  9  1  0
  9 10  2  0
 10 11  1  0
 11  7  2  0
  5  7  1  0
 10 12  1  0
 12 13  2  0
 12 14  1  0
  9 15  1  0
 15 16  1  0
 16 17  1  0
 16 18  2  0
 17 19  2  0
 19 20  1  0
 20 21  2  0
 21 22  1  0
 22 17  1  0
M  END
> <From> 
www.bindingDB.org

> <BindingDB Reactant_set_id>
50302353

> <Ligand InChI>
InChI=1S/C16H12N2O2S2/c17-14(19)11-9-13(10-5-2-1-3-6-10)22-16(11)18-15(20)12-7-4-8-21-12/h1-9H,(H2,17,19)(H,18,20)

> <Ligand InChI Key>
OKAAXDYJZQVAJA-UHFFFAOYSA-N

> <BindingDB MonomerID>
50066117

> <BindingDB Ligand Name>
CHEMBL3402957

> <Target Name Assigned by Curator or DataSource>
DNA gyrase subunit B

> <Target Source Organism According to Curator or DataSource>


> <Ki (nM)>


> <IC50 (nM)>
 1500

> <Kd (nM)>


> <EC50 (nM)>


> <kon (M-1-s-1)>


> <koff (s-1)>


> <pH>


> <Temp C>
25.00

> <Curation/DataSource>
ChEMBL

> <Article DOI>
10.1016/j.bmc.2015.02.032

> <PMID>
25766629

> <PubChem AID>


> <Patent Number>


> <Authors>
Saxena, S; Samala, G; Renuka, J; Sridevi, JP; Yogeeswari, P; Sriram, D

> <Institution>
Birla Institute of Technology&amp; Science-Pilani

> <Link to Ligand in BindingDB>
http://www.bindingdb.org/bind/chemsearch/marvin/MolStructure.jsp?monomerid=50066117

> <Link to Ligand-Target Pair in BindingDB>
http://www.bindingdb.org/jsp/dbsearch/PrimarySearch_ki.jsp?energyterm=kJ/mole&tag=pol&polymerid=50006452&target=DNA+gyrase+subunit+B&column=ki&startPg=0&Increment=50&submit=Search

> <Link to Ligand-Target Pair in BindingDB>
http://www.bindingdb.org/jsp/dbsearch/PrimarySearch_ki.jsp?energyterm=kJ/mole&tag=r21&monomerid=50066117&enzyme=DNA+gyrase+subunit+B&column=ki&startPg=0&Increment=50&submit=Search

> <Ligand HET ID in PDB>


> <PDB ID(s) for Ligand-Target Complex>


> <PubChem CID>
705280

> <PubChem SID>
103960799

> <ChEBI ID of Ligand>


> <ChEMBL ID of Ligand>
CHEMBL430686

> <DrugBank ID of Ligand>


> <IUPHAR_GRAC ID of Ligand>


> <KEGG ID of Ligand>


> <ZINC ID of Ligand>
ZINC13780721

> <Number of Protein Chains in Target (>1 implies a multichain complex)>
1

> <BindingDB Target Chain Sequence>
MAAQKNNAPKEYGADSITILEGLEAVRKRPGMYIGSTGERGLHHLIWEVVDNAVDEAMAGFATRVDVKIHADGSVEVRDDGRGIPVEMHATGMPTIDVVMTQLHAGGKFDGETYAVSGGLHGVGVSVVNALSTRLEATVLRDGYEWFQYYDRSVPGKLKQGGETKETGTTIRFWADPEIFETTDYNFETVARRLQEMAFLNKGLTIELTDERVTAEEVVDDVVKDTAEAPKTADEKAAEATGPSKVKHRVFHYPGGLVDYVKHINRTKTPIQQSIIDFDGKGPGHEVEIAMQWNAGYSESVHTFANTINTHEGGTHEEGFRAALTSVVNRYAKDKKLLKDKDPNLTGDDIREGLAAVISVKVAEPQFEGQTKTKLGNTEVKSFVQKICNEQLQHWFEANPAEAKTVVNKAVSSAQARIAARKARELVRRKSATDIGGLPGKLADCRSTDPSKSELYVVEGDSAGGSAKSGRDSMFQAILPLRGKIINVEKARIDRVLKNTEVQSIITALGTGIHDEFDISKLRYHKIVLMADADVDGQHISTLLLTLLFRFMKPLVENGHIFLAQPPLYKLKWQRSEPEFAYSDRERDGLLEAGRAAGKKINVDDGIQRYKGLGEMDAKELWETTMDPSVRVLRQVTLDDAAAADELFSILMGEDVEARRSFITRNAKDVRFLDV

> <PDB ID(s) of Target Chain>
4BAE

> <UniProt (SwissProt) Recommended Name of Target Chain>
DNA gyrase subunit B

> <UniProt (SwissProt) Entry Name of Target Chain>
GYRB_MYCSM

> <UniProt (SwissProt) Primary ID of Target Chain>
P0C559

> <UniProt (SwissProt) Secondary ID(s) of Target Chain>
P48355,Q59555

> <UniProt (SwissProt) Alternative ID(s) of Target Chain>


> <UniProt (TrEMBL) Submitted Name of Target Chain>


> <UniProt (TrEMBL) Entry Name of Target Chain>


> <UniProt (TrEMBL) Primary ID of Target Chain>


> <UniProt (TrEMBL) Secondary ID(s) of Target Chain>


> <UniProt (TrEMBL) Alternative ID(s) of Target Chain>


$$$$

  Mrv0541 03201611132D          

 25 28  0  0  0  0            999 V2000
   16.2958  -25.7271    0.0000 N   0  0  0  0  0  0  0  0  0  0  0  0
   16.0387  -26.5118    0.0000 C   0  0  0  0  0  0  0  0  0  0  0  0
   15.2327  -26.6842    0.0000 C   0  0  0  0  0  0  0  0  0  0  0  0
   14.6796  -26.0719    0.0000 N   0  0  0  0  0  0  0  0  0  0  0  0
   14.9367  -25.2873    0.0000 C   0  0  0  0  0  0  0  0  0  0  0  0
   15.7427  -25.1148    0.0000 C   0  0  0  0  0  0  0  0  0  0  0  0
   17.1018  -25.5547    0.0000 C   0  0  0  0  0  0  0  0  0  0  0  0
   17.6549  -26.1711    0.0000 O   0  0  0  0  0  0  0  0  0  0  0  0
   17.3589  -24.7742    0.0000 N   0  0  0  0  0  0  0  0  0  0  0  0
   18.1538  -24.5591    0.0000 C   0  0  0  0  0  0  0  0  0  0  0  0
   18.3690  -23.7600    0.0000 C   0  0  0  0  0  0  0  0  0  0  0  0
   19.1639  -23.5489    0.0000 C   0  0  0  0  0  0  0  0  0  0  0  0
   19.7478  -24.1329    0.0000 C   0  0  0  0  0  0  0  0  0  0  0  0
   19.5367  -24.9278    0.0000 C   0  0  0  0  0  0  0  0  0  0  0  0
   18.7377  -25.1429    0.0000 C   0  0  0  0  0  0  0  0  0  0  0  0
   20.5469  -23.9176    0.0000 Cl  0  0  0  0  0  0  0  0  0  0  0  0
   12.7178  -26.9097    0.0000 S   0  0  0  0  0  0  0  0  0  0  0  0
   13.5402  -26.9988    0.0000 N   0  0  0  0  0  0  0  0  0  0  0  0
   13.8736  -26.2443    0.0000 C   0  0  0  0  0  0  0  0  0  0  0  0
   13.2614  -25.6912    0.0000 C   0  0  0  0  0  0  0  0  0  0  0  0
   12.5497  -26.1037    0.0000 C   0  0  0  0  0  0  0  0  0  0  0  0
   11.8338  -25.6912    0.0000 C   0  0  0  0  0  0  0  0  0  0  0  0
   11.8338  -24.8662    0.0000 C   0  0  0  0  0  0  0  0  0  0  0  0
   12.5497  -24.4537    0.0000 C   0  0  0  0  0  0  0  0  0  0  0  0
   13.2614  -24.8662    0.0000 C   0  0  0  0  0  0  0  0  0  0  0  0
  1  2  1  0  0  0  0
  2  3  1  0  0  0  0
  3  4  1  0  0  0  0
  4  5  1  0  0  0  0
  5  6  1  0  0  0  0
  1  6  1  0  0  0  0
  7  8  2  0  0  0  0
  7  9  1  0  0  0  0
  1  7  1  0  0  0  0
 10 11  4  0  0  0  0
 11 12  4  0  0  0  0
 12 13  4  0  0  0  0
 13 14  4  0  0  0  0
 14 15  4  0  0  0  0
 10 15  4  0  0  0  0
 13 16  1  0  0  0  0
  9 10  1  0  0  0  0
 17 18  4  0  0  0  0
 18 19  4  0  0  0  0
 19 20  4  0  0  0  0
 20 21  4  0  0  0  0
 17 21  4  0  0  0  0
 22 23  4  0  0  0  0
 23 24  4  0  0  0  0
 24 25  4  0  0  0  0
 20 25  4  0  0  0  0
 21 22  4  0  0  0  0
  4 19  1  0  0  0  0
M  END
> <From> 
www.bindingDB.org

> <BindingDB Reactant_set_id>
50254196

> <Ligand InChI>
InChI=1S/C18H17ClN4OS/c19-13-5-7-14(8-6-13)20-18(24)23-11-9-22(10-12-23)17-15-3-1-2-4-16(15)25-21-17/h1-8H,9-12H2,(H,20,24)

> <Ligand InChI Key>
QTNUSHNFNCQFCP-UHFFFAOYSA-N

> <BindingDB MonomerID>
50037084

> <BindingDB Ligand Name>
CHEMBL3355797

> <Target Name Assigned by Curator or DataSource>
DNA gyrase subunit B

> <Target Source Organism According to Curator or DataSource>


> <Ki (nM)>


> <IC50 (nM)>
 1770

> <Kd (nM)>


> <EC50 (nM)>


> <kon (M-1-s-1)>


> <koff (s-1)>


> <pH>


> <Temp C>


> <Curation/DataSource>
ChEMBL

> <Article DOI>
10.1016/j.bmc.2014.10.016

> <PMID>
25456076

> <PubChem AID>


> <Patent Number>


> <Authors>
Reddy, KI; Srihari, K; Renuka, J; Sree, KS; Chuppala, A; Jeankumar, VU; Sridevi, JP; Babu, KS; Yogeeswari, P; Sriram, D

> <Institution>
TBA

> <Link to Ligand in BindingDB>
http://www.bindingdb.org/bind/chemsearch/marvin/MolStructure.jsp?monomerid=50037084

> <Link to Ligand-Target Pair in BindingDB>
http://www.bindingdb.org/jsp/dbsearch/PrimarySearch_ki.jsp?energyterm=kJ/mole&tag=pol&polymerid=50006452&target=DNA+gyrase+subunit+B&column=ki&startPg=0&Increment=50&submit=Search

> <Link to Ligand-Target Pair in BindingDB>
http://www.bindingdb.org/jsp/dbsearch/PrimarySearch_ki.jsp?energyterm=kJ/mole&tag=r21&monomerid=50037084&enzyme=DNA+gyrase+subunit+B&column=ki&startPg=0&Increment=50&submit=Search

> <Ligand HET ID in PDB>


> <PDB ID(s) for Ligand-Target Complex>


> <PubChem CID>
6458749

> <PubChem SID>
313067058

> <ChEBI ID of Ligand>


> <ChEMBL ID of Ligand>


> <DrugBank ID of Ligand>


> <IUPHAR_GRAC ID of Ligand>


> <KEGG ID of Ligand>


> <ZINC ID of Ligand>


> <Number of Protein Chains in Target (>1 implies a multichain complex)>
1

> <BindingDB Target Chain Sequence>
MAAQKNNAPKEYGADSITILEGLEAVRKRPGMYIGSTGERGLHHLIWEVVDNAVDEAMAGFATRVDVKIHADGSVEVRDDGRGIPVEMHATGMPTIDVVMTQLHAGGKFDGETYAVSGGLHGVGVSVVNALSTRLEATVLRDGYEWFQYYDRSVPGKLKQGGETKETGTTIRFWADPEIFETTDYNFETVARRLQEMAFLNKGLTIELTDERVTAEEVVDDVVKDTAEAPKTADEKAAEATGPSKVKHRVFHYPGGLVDYVKHINRTKTPIQQSIIDFDGKGPGHEVEIAMQWNAGYSESVHTFANTINTHEGGTHEEGFRAALTSVVNRYAKDKKLLKDKDPNLTGDDIREGLAAVISVKVAEPQFEGQTKTKLGNTEVKSFVQKICNEQLQHWFEANPAEAKTVVNKAVSSAQARIAARKARELVRRKSATDIGGLPGKLADCRSTDPSKSELYVVEGDSAGGSAKSGRDSMFQAILPLRGKIINVEKARIDRVLKNTEVQSIITALGTGIHDEFDISKLRYHKIVLMADADVDGQHISTLLLTLLFRFMKPLVENGHIFLAQPPLYKLKWQRSEPEFAYSDRERDGLLEAGRAAGKKINVDDGIQRYKGLGEMDAKELWETTMDPSVRVLRQVTLDDAAAADELFSILMGEDVEARRSFITRNAKDVRFLDV

> <PDB ID(s) of Target Chain>
4BAE

> <UniProt (SwissProt) Recommended Name of Target Chain>
DNA gyrase subunit B

> <UniProt (SwissProt) Entry Name of Target Chain>
GYRB_MYCSM

> <UniProt (SwissProt) Primary ID of Target Chain>
P0C559

> <UniProt (SwissProt) Secondary ID(s) of Target Chain>
P48355,Q59555

> <UniProt (SwissProt) Alternative ID(s) of Target Chain>


> <UniProt (TrEMBL) Submitted Name of Target Chain>


> <UniProt (TrEMBL) Entry Name of Target Chain>


> <UniProt (TrEMBL) Primary ID of Target Chain>


> <UniProt (TrEMBL) Secondary ID(s) of Target Chain>


> <UniProt (TrEMBL) Alternative ID(s) of Target Chain>


$$$$

  Mrv0541 04171609262D          

 29 32  0  0  0  0            999 V2000
   -1.4361    0.4117    0.0000 C   0  0  0  0  0  0  0  0  0  0  0  0
   -1.4361   -0.4117    0.0000 C   0  0  0  0  0  0  0  0  0  0  0  0
   -0.7130   -0.8235    0.0000 C   0  0  0  0  0  0  0  0  0  0  0  0
   -0.7130    0.8235    0.0000 C   0  0  0  0  0  0  0  0  0  0  0  0
    0.0000    0.4117    0.0000 C   0  0  0  0  0  0  0  0  0  0  0  0
    0.0000   -0.4117    0.0000 C   0  0  0  0  0  0  0  0  0  0  0  0
    0.7130   -0.8235    0.0000 N   0  0  0  0  0  0  0  0  0  0  0  0
    1.4261   -0.4117    0.0000 C   0  0  0  0  0  0  0  0  0  0  0  0
    1.4261    0.4117    0.0000 C   0  0  0  0  0  0  0  0  0  0  0  0
    0.7130    0.8235    0.0000 C   0  0  0  0  0  0  0  0  0  0  0  0
    0.7130    1.6489    0.0000 N   0  0  0  0  0  0  0  0  0  0  0  0
   -0.0008    2.0627    0.0000 C   0  0  0  0  0  0  0  0  0  0  0  0
    0.0006    2.8877    0.0000 C   0  0  0  0  0  0  0  0  0  0  0  0
    0.7158    3.2990    0.0000 C   0  0  0  0  0  0  0  0  0  0  0  0
    1.4296    2.8853    0.0000 C   0  0  0  0  0  0  0  0  0  0  0  0
    1.4282    2.0603    0.0000 C   0  0  0  0  0  0  0  0  0  0  0  0
    0.7188    4.1245    0.0000 N   0  0  0  0  0  0  0  0  0  0  0  0
    1.4350    4.5350    0.0000 C   0  0  0  0  0  0  0  0  0  0  0  0
    2.0054    4.2031    0.0000 O   0  0  0  0  0  0  0  0  0  0  0  0
    1.4380    5.3604    0.0000 N   0  0  0  0  0  0  0  0  0  0  0  0
    2.1541    5.7709    0.0000 C   0  0  0  0  0  0  0  0  0  0  0  0
    2.1584    6.5960    0.0000 C   0  0  0  0  0  0  0  0  0  0  0  0
    2.8750    7.0048    0.0000 C   0  0  0  0  0  0  0  0  0  0  0  0
    3.5873    6.5887    0.0000 C   0  0  0  0  0  0  0  0  0  0  0  0
    3.5831    5.7637    0.0000 C   0  0  0  0  0  0  0  0  0  0  0  0
    2.8666    5.3548    0.0000 C   0  0  0  0  0  0  0  0  0  0  0  0
    1.9977   -0.7417    0.0000 C   0  0  0  0  0  0  0  0  0  0  0  0
    4.1606    6.9157    0.0000 F   0  0  0  0  0  0  0  0  0  0  0  0
   -2.0067    0.7434    0.0000 F   0  0  0  0  0  0  0  0  0  0  0  0
  1  2  4  0  0  0  0
  2  3  4  0  0  0  0
  3  6  4  0  0  0  0
  5  4  4  0  0  0  0
  4  1  4  0  0  0  0
  5  6  4  0  0  0  0
  6  7  4  0  0  0  0
  7  8  4  0  0  0  0
  8  9  4  0  0  0  0
  9 10  4  0  0  0  0
 10  5  4  0  0  0  0
 11 12  1  0  0  0  0
 11 16  1  0  0  0  0
 12 13  1  0  0  0  0
 13 14  1  0  0  0  0
 14 15  1  0  0  0  0
 15 16  1  0  0  0  0
 10 11  1  0  0  0  0
 14 17  1  0  0  0  0
 17 18  1  0  0  0  0
 18 19  2  0  0  0  0
 18 20  1  0  0  0  0
 20 21  1  0  0  0  0
 21 22  4  0  0  0  0
 22 23  4  0  0  0  0
 23 24  4  0  0  0  0
 24 25  4  0  0  0  0
 25 26  4  0  0  0  0
 26 21  4  0  0  0  0
  8 27  1  0  0  0  0
 24 28  1  0  0  0  0
  1 29  1  0  0  0  0
M  END
> <From> 
www.bindingDB.org

> <BindingDB Reactant_set_id>
50303804

> <Ligand InChI>
InChI=1S/C22H22F2N4O/c1-14-12-21(19-13-16(24)4-7-20(19)25-14)28-10-8-18(9-11-28)27-22(29)26-17-5-2-15(23)3-6-17/h2-7,12-13,18H,8-11H2,1H3,(H2,26,27,29)

> <Ligand InChI Key>
YCNUNFFZGTZRDT-UHFFFAOYSA-N

> <BindingDB MonomerID>
50066970

> <BindingDB Ligand Name>
CHEMBL3403255

> <Target Name Assigned by Curator or DataSource>
DNA gyrase subunit B

> <Target Source Organism According to Curator or DataSource>


> <Ki (nM)>


> <IC50 (nM)>
 1780

> <Kd (nM)>


> <EC50 (nM)>


> <kon (M-1-s-1)>


> <koff (s-1)>


> <pH>


> <Temp C>


> <Curation/DataSource>
ChEMBL

> <Article DOI>
10.1016/j.bmc.2015.03.004

> <PMID>
25801151

> <PubChem AID>


> <Patent Number>


> <Authors>
Medapi, B; Renuka, J; Saxena, S; Sridevi, JP; Medishetti, R; Kulkarni, P; Yogeeswari, P; Sriram, D

> <Institution>
Birla Institute of Technology&amp; Science-Pilani

> <Link to Ligand in BindingDB>
http://www.bindingdb.org/bind/chemsearch/marvin/MolStructure.jsp?monomerid=50066970

> <Link to Ligand-Target Pair in BindingDB>
http://www.bindingdb.org/jsp/dbsearch/PrimarySearch_ki.jsp?energyterm=kJ/mole&tag=pol&polymerid=50006452&target=DNA+gyrase+subunit+B&column=ki&startPg=0&Increment=50&submit=Search

> <Link to Ligand-Target Pair in BindingDB>
http://www.bindingdb.org/jsp/dbsearch/PrimarySearch_ki.jsp?energyterm=kJ/mole&tag=r21&monomerid=50066970&enzyme=DNA+gyrase+subunit+B&column=ki&startPg=0&Increment=50&submit=Search

> <Ligand HET ID in PDB>


> <PDB ID(s) for Ligand-Target Complex>


> <PubChem CID>
118729671

> <PubChem SID>
313071769

> <ChEBI ID of Ligand>


> <ChEMBL ID of Ligand>


> <DrugBank ID of Ligand>


> <IUPHAR_GRAC ID of Ligand>


> <KEGG ID of Ligand>


> <ZINC ID of Ligand>


> <Number of Protein Chains in Target (>1 implies a multichain complex)>
1

> <BindingDB Target Chain Sequence>
MAAQKNNAPKEYGADSITILEGLEAVRKRPGMYIGSTGERGLHHLIWEVVDNAVDEAMAGFATRVDVKIHADGSVEVRDDGRGIPVEMHATGMPTIDVVMTQLHAGGKFDGETYAVSGGLHGVGVSVVNALSTRLEATVLRDGYEWFQYYDRSVPGKLKQGGETKETGTTIRFWADPEIFETTDYNFETVARRLQEMAFLNKGLTIELTDERVTAEEVVDDVVKDTAEAPKTADEKAAEATGPSKVKHRVFHYPGGLVDYVKHINRTKTPIQQSIIDFDGKGPGHEVEIAMQWNAGYSESVHTFANTINTHEGGTHEEGFRAALTSVVNRYAKDKKLLKDKDPNLTGDDIREGLAAVISVKVAEPQFEGQTKTKLGNTEVKSFVQKICNEQLQHWFEANPAEAKTVVNKAVSSAQARIAARKARELVRRKSATDIGGLPGKLADCRSTDPSKSELYVVEGDSAGGSAKSGRDSMFQAILPLRGKIINVEKARIDRVLKNTEVQSIITALGTGIHDEFDISKLRYHKIVLMADADVDGQHISTLLLTLLFRFMKPLVENGHIFLAQPPLYKLKWQRSEPEFAYSDRERDGLLEAGRAAGKKINVDDGIQRYKGLGEMDAKELWETTMDPSVRVLRQVTLDDAAAADELFSILMGEDVEARRSFITRNAKDVRFLDV

> <PDB ID(s) of Target Chain>
4BAE

> <UniProt (SwissProt) Recommended Name of Target Chain>
DNA gyrase subunit B

> <UniProt (SwissProt) Entry Name of Target Chain>
GYRB_MYCSM

> <UniProt (SwissProt) Primary ID of Target Chain>
P0C559

> <UniProt (SwissProt) Secondary ID(s) of Target Chain>
P48355,Q59555

> <UniProt (SwissProt) Alternative ID(s) of Target Chain>


> <UniProt (TrEMBL) Submitted Name of Target Chain>


> <UniProt (TrEMBL) Entry Name of Target Chain>


> <UniProt (TrEMBL) Primary ID of Target Chain>


> <UniProt (TrEMBL) Secondary ID(s) of Target Chain>


> <UniProt (TrEMBL) Alternative ID(s) of Target Chain>


$$$$

  SciTegic12211712072D

 27 29  0  0  0  0            999 V2000
   11.6691   -7.4673    0.0000 O   0  0
   12.0777   -8.1764    0.0000 C   0  0
   12.8948   -8.1764    0.0000 C   0  0
   13.3034   -8.8855    0.0000 O   0  0
   14.1206   -8.8855    0.0000 C   0  0
   14.5292   -9.5904    0.0000 C   0  0
   13.3034   -7.4673    0.0000 O   0  0
   11.6691   -8.8855    0.0000 N   0  0
   10.8519   -8.8855    0.0000 C   0  0
   10.3717   -8.2222    0.0000 N   0  0
    9.5945   -8.4769    0.0000 C   0  0
    8.8854   -8.0683    0.0000 C   0  0
    8.1763   -8.4769    0.0000 C   0  0
    8.1763   -9.2941    0.0000 C   0  0
    7.4714   -9.7026    0.0000 N   0  0
    6.7623   -9.2941    0.0000 C   0  0
    6.7623   -8.4769    0.0000 C   0  0
    7.4214   -7.9967    0.0000 C   0  0
    7.1709   -7.2195    0.0000 C   0  0
    7.6510   -6.5562    0.0000 Cl  0  0
    6.3537   -7.2195    0.0000 C   0  0
    5.8735   -6.5562    0.0000 Cl  0  0
    6.1031   -7.9967    0.0000 N   0  0
    6.0532   -9.7026    0.0000 O   0  0
    8.8854   -9.7026    0.0000 C   0  0
    9.5945   -9.2941    0.0000 C   0  0
   10.3717   -9.5446    0.0000 S   0  0
  1  2  2  0
  2  3  1  0
  3  4  1  0
  4  5  1  0
  5  6  1  0
  3  7  2  0
  2  8  1  0
  8  9  1  0
  9 10  2  0
 10 11  1  0
 11 12  2  0
 12 13  1  0
 13 14  2  0
 14 15  1  0
 15 16  1  0
 16 17  1  0
 17 18  2  0
 18 19  1  0
 19 20  1  0
 19 21  2  0
 21 22  1  0
 21 23  1  0
 17 23  1  0
 16 24  2  0
 14 25  1  0
 25 26  2  0
 11 26  1  0
 26 27  1  0
  9 27  1  0
M  END
> <From> 
www.bindingDB.org

> <BindingDB Reactant_set_id>
50524103

> <Ligand InChI>
InChI=1S/C16H12Cl2N4O4S/c1-2-26-15(25)14(24)22-16-21-9-4-3-7(5-11(9)27-16)19-13(23)10-6-8(17)12(18)20-10/h3-6,20H,2H2,1H3,(H,19,23)(H,21,22,24)

> <Ligand InChI Key>
RHSZXRQVJPPQHW-UHFFFAOYSA-N

> <BindingDB MonomerID>
50198239

> <BindingDB Ligand Name>
CHEMBL3921420

> <Target Name Assigned by Curator or DataSource>
DNA Gyrase Subunit B

> <Target Source Organism According to Curator or DataSource>
Escherichia coli

> <Ki (nM)>


> <IC50 (nM)>
 1800

> <Kd (nM)>


> <EC50 (nM)>


> <kon (M-1-s-1)>


> <koff (s-1)>


> <pH>


> <Temp C>


> <Curation/DataSource>
ChEMBL

> <Article DOI>
10.1021/acs.jmedchem.6b00864

> <PMID>
27541007

> <PubChem AID>


> <Patent Number>


> <Authors>
Gjorgjieva, M; Tomaic, T; Barancokova, M; Katsamakas, S; Ila, J; Tammela, P; Peterlin Maic, L; Kikelj, D

> <Institution>
University of Ljubljana

> <Link to Ligand in BindingDB>
http://www.bindingdb.org/bind/chemsearch/marvin/MolStructure.jsp?monomerid=50198239

> <Link to Ligand-Target Pair in BindingDB>
http://www.bindingdb.org/jsp/dbsearch/PrimarySearch_ki.jsp?energyterm=kJ/mole&tag=pol&polymerid=2630&target=DNA+Gyrase+Subunit+B&column=ki&startPg=0&Increment=50&submit=Search

> <Link to Ligand-Target Pair in BindingDB>
http://www.bindingdb.org/jsp/dbsearch/PrimarySearch_ki.jsp?energyterm=kJ/mole&tag=r21&monomerid=50198239&enzyme=DNA+Gyrase+Subunit+B&column=ki&startPg=0&Increment=50&submit=Search

> <Ligand HET ID in PDB>


> <PDB ID(s) for Ligand-Target Complex>


> <PubChem CID>
134140511

> <PubChem SID>
375978191

> <ChEBI ID of Ligand>


> <ChEMBL ID of Ligand>


> <DrugBank ID of Ligand>


> <IUPHAR_GRAC ID of Ligand>


> <KEGG ID of Ligand>


> <ZINC ID of Ligand>


> <Number of Protein Chains in Target (>1 implies a multichain complex)>
1

> <BindingDB Target Chain Sequence>
MSNSYDSSSIKVLKGLDAVRKRPGMYIGDTDDGTGLHHMVFEVVDNAIDEALAGHCKEII
VTIHADNSVSVQDDGRGIPTGIHPEEGVSAAEVIMTVLHAGGKFDDNSYKVSGGLHGVGV
SVVNALSQKLELVIQREGKIHRQIYEHGVPQAPLAVTGETEKTGTMVRFWPSLETFTNVT
EFEYEILAKRLRELSFLNSGVSIRLRDKRDGKEDHFHYEGGIKAFVEYLNKNKTPIHPNI
FYFSTEKDGIGVEVALQWNDGFQENIYCFTNNIPQRDGGTHLAGFRAAMTRTLNAYMDKE
GYSKKAKVSATGDDAREGLIAVVSVKVPDPKFSSQTKDKLVSSEVKSAVEQQMNELLAEY
LLENPTDAKIVVGKIIDAARAREAARRAREMTRRKGALDLAGLPGKLADCQERDPALSEL
YLVEGDSAGGSAKQGRNRKNQAILPLKGKILNVEKARFDKMLSSQEVATLITALGCGIGR
DEYNPDKLRYHSIIIMTDADVDGSHIRTLLLTFFYRQMPEIVERGHVYIAQPPLYKVKKG
KQEQYIKDDEAMDQYQISIALDGATLHTNASAPALAGEALEKLVSEYNATQKMINRMERR
YPKAMLKELIYQPTLTEADLSDEQTVTRWVNALVSELNDKEQHGSQWKFDVHTNAEQNLF
EPIVRVRTHGVDTDYPLDHEFITGGEYRRICTLGEKLRGLLEEDAFIERGERRQPVASFE
QALDWLVKESRRGLSIQRYKGLGEMNPEQLWETTMDPESRRMLRVTVKDAIAADQLFTTL
MGDAVEPRRAFIEENALKAANIDI

> <PDB ID(s) of Target Chain>
1KZN,3G7E,3NUH,4DUH,4HYP,4KFG,4PRV,4PRX,4PU9,4WUB,4WUC,4WUD,4XTJ,4ZVI,5L3J,5MMN,5MMO,5MMP,5Z4H,5Z4O,5Z9B,5Z9E,5Z9F,5Z9L,5Z9M,5Z9N,5Z9Q,6ENG,6F86,6F8J,6F94,6F96

> <UniProt (SwissProt) Recommended Name of Target Chain>
DNA gyrase subunit B

> <UniProt (SwissProt) Entry Name of Target Chain>
GYRB_ECOLI

> <UniProt (SwissProt) Primary ID of Target Chain>
P0AES6

> <UniProt (SwissProt) Secondary ID(s) of Target Chain>
O08438,P06982,Q2M811

> <UniProt (SwissProt) Alternative ID(s) of Target Chain>


> <UniProt (TrEMBL) Submitted Name of Target Chain>


> <UniProt (TrEMBL) Entry Name of Target Chain>


> <UniProt (TrEMBL) Primary ID of Target Chain>


> <UniProt (TrEMBL) Secondary ID(s) of Target Chain>


> <UniProt (TrEMBL) Alternative ID(s) of Target Chain>


$$$$

  Mrv0541 03201611132D          

 27 30  0  0  0  0            999 V2000
    6.1706  -22.2933    0.0000 N   0  0  0  0  0  0  0  0  0  0  0  0
    5.9135  -23.0779    0.0000 C   0  0  0  0  0  0  0  0  0  0  0  0
    5.1075  -23.2461    0.0000 C   0  0  0  0  0  0  0  0  0  0  0  0
    4.5545  -22.6339    0.0000 N   0  0  0  0  0  0  0  0  0  0  0  0
    4.8116  -21.8533    0.0000 C   0  0  0  0  0  0  0  0  0  0  0  0
    5.6175  -21.6810    0.0000 C   0  0  0  0  0  0  0  0  0  0  0  0
    6.9767  -22.1208    0.0000 C   0  0  0  0  0  0  0  0  0  0  0  0
    7.2296  -21.3362    0.0000 N   0  0  0  0  0  0  0  0  0  0  0  0
    7.5297  -22.7331    0.0000 S   0  0  0  0  0  0  0  0  0  0  0  0
    2.5927  -23.4759    0.0000 S   0  0  0  0  0  0  0  0  0  0  0  0
    3.4150  -23.5607    0.0000 N   0  0  0  0  0  0  0  0  0  0  0  0
    3.7484  -22.8062    0.0000 C   0  0  0  0  0  0  0  0  0  0  0  0
    3.1362  -22.2573    0.0000 C   0  0  0  0  0  0  0  0  0  0  0  0
    2.4203  -22.6698    0.0000 C   0  0  0  0  0  0  0  0  0  0  0  0
    1.7045  -22.2573    0.0000 C   0  0  0  0  0  0  0  0  0  0  0  0
    1.7045  -21.4323    0.0000 C   0  0  0  0  0  0  0  0  0  0  0  0
    2.4203  -21.0198    0.0000 C   0  0  0  0  0  0  0  0  0  0  0  0
    3.1362  -21.4323    0.0000 C   0  0  0  0  0  0  0  0  0  0  0  0
    8.0286  -21.1210    0.0000 C   0  0  0  0  0  0  0  0  0  0  0  0
    8.2438  -20.3261    0.0000 C   0  0  0  0  0  0  0  0  0  0  0  0
    9.0388  -20.1109    0.0000 C   0  0  0  0  0  0  0  0  0  0  0  0
    9.6226  -20.6948    0.0000 C   0  0  0  0  0  0  0  0  0  0  0  0
    9.4074  -21.4939    0.0000 C   0  0  0  0  0  0  0  0  0  0  0  0
    8.6125  -21.7049    0.0000 C   0  0  0  0  0  0  0  0  0  0  0  0
   10.4175  -20.4796    0.0000 N   0  3  0  0  0  0  0  0  0  0  0  0
   10.6327  -19.6847    0.0000 O   0  0  0  0  0  0  0  0  0  0  0  0
   11.0014  -21.0634    0.0000 O   0  5  0  0  0  0  0  0  0  0  0  0
  1  2  1  0  0  0  0
  2  3  1  0  0  0  0
  3  4  1  0  0  0  0
  4  5  1  0  0  0  0
  5  6  1  0  0  0  0
  1  6  1  0  0  0  0
  7  8  1  0  0  0  0
  7  9  2  0  0  0  0
  1  7  1  0  0  0  0
 10 11  4  0  0  0  0
 11 12  4  0  0  0  0
 12 13  4  0  0  0  0
 13 14  4  0  0  0  0
 10 14  4  0  0  0  0
 15 16  4  0  0  0  0
 16 17  4  0  0  0  0
 17 18  4  0  0  0  0
 13 18  4  0  0  0  0
 14 15  4  0  0  0  0
  4 12  1  0  0  0  0
 19 20  4  0  0  0  0
 20 21  4  0  0  0  0
 21 22  4  0  0  0  0
 22 23  4  0  0  0  0
 23 24  4  0  0  0  0
 19 24  4  0  0  0  0
 25 26  2  0  0  0  0
 25 27  1  0  0  0  0
 22 25  1  0  0  0  0
  8 19  1  0  0  0  0
M  CHG  2  25   1  27  -1
M  END
> <From> 
www.bindingDB.org

> <BindingDB Reactant_set_id>
50254216

> <Ligand InChI>
InChI=1S/C18H17N5O2S2/c24-23(25)14-7-5-13(6-8-14)19-18(26)22-11-9-21(10-12-22)17-15-3-1-2-4-16(15)27-20-17/h1-8H,9-12H2,(H,19,26)

> <Ligand InChI Key>
UPDVYCSAZWBUBM-UHFFFAOYSA-N

> <BindingDB MonomerID>
50037197

> <BindingDB Ligand Name>
CHEMBL3355806

> <Target Name Assigned by Curator or DataSource>
DNA gyrase subunit B

> <Target Source Organism According to Curator or DataSource>


> <Ki (nM)>


> <IC50 (nM)>
 1810

> <Kd (nM)>


> <EC50 (nM)>


> <kon (M-1-s-1)>


> <koff (s-1)>


> <pH>


> <Temp C>


> <Curation/DataSource>
ChEMBL

> <Article DOI>
10.1016/j.bmc.2014.10.016

> <PMID>
25456076

> <PubChem AID>


> <Patent Number>


> <Authors>
Reddy, KI; Srihari, K; Renuka, J; Sree, KS; Chuppala, A; Jeankumar, VU; Sridevi, JP; Babu, KS; Yogeeswari, P; Sriram, D

> <Institution>
TBA

> <Link to Ligand in BindingDB>
http://www.bindingdb.org/bind/chemsearch/marvin/MolStructure.jsp?monomerid=50037197

> <Link to Ligand-Target Pair in BindingDB>
http://www.bindingdb.org/jsp/dbsearch/PrimarySearch_ki.jsp?energyterm=kJ/mole&tag=pol&polymerid=50006452&target=DNA+gyrase+subunit+B&column=ki&startPg=0&Increment=50&submit=Search

> <Link to Ligand-Target Pair in BindingDB>
http://www.bindingdb.org/jsp/dbsearch/PrimarySearch_ki.jsp?energyterm=kJ/mole&tag=r21&monomerid=50037197&enzyme=DNA+gyrase+subunit+B&column=ki&startPg=0&Increment=50&submit=Search

> <Ligand HET ID in PDB>


> <PDB ID(s) for Ligand-Target Complex>


> <PubChem CID>
118721101

> <PubChem SID>
313067074

> <ChEBI ID of Ligand>


> <ChEMBL ID of Ligand>


> <DrugBank ID of Ligand>


> <IUPHAR_GRAC ID of Ligand>


> <KEGG ID of Ligand>


> <ZINC ID of Ligand>


> <Number of Protein Chains in Target (>1 implies a multichain complex)>
1

> <BindingDB Target Chain Sequence>
MAAQKNNAPKEYGADSITILEGLEAVRKRPGMYIGSTGERGLHHLIWEVVDNAVDEAMAGFATRVDVKIHADGSVEVRDDGRGIPVEMHATGMPTIDVVMTQLHAGGKFDGETYAVSGGLHGVGVSVVNALSTRLEATVLRDGYEWFQYYDRSVPGKLKQGGETKETGTTIRFWADPEIFETTDYNFETVARRLQEMAFLNKGLTIELTDERVTAEEVVDDVVKDTAEAPKTADEKAAEATGPSKVKHRVFHYPGGLVDYVKHINRTKTPIQQSIIDFDGKGPGHEVEIAMQWNAGYSESVHTFANTINTHEGGTHEEGFRAALTSVVNRYAKDKKLLKDKDPNLTGDDIREGLAAVISVKVAEPQFEGQTKTKLGNTEVKSFVQKICNEQLQHWFEANPAEAKTVVNKAVSSAQARIAARKARELVRRKSATDIGGLPGKLADCRSTDPSKSELYVVEGDSAGGSAKSGRDSMFQAILPLRGKIINVEKARIDRVLKNTEVQSIITALGTGIHDEFDISKLRYHKIVLMADADVDGQHISTLLLTLLFRFMKPLVENGHIFLAQPPLYKLKWQRSEPEFAYSDRERDGLLEAGRAAGKKINVDDGIQRYKGLGEMDAKELWETTMDPSVRVLRQVTLDDAAAADELFSILMGEDVEARRSFITRNAKDVRFLDV

> <PDB ID(s) of Target Chain>
4BAE

> <UniProt (SwissProt) Recommended Name of Target Chain>
DNA gyrase subunit B

> <UniProt (SwissProt) Entry Name of Target Chain>
GYRB_MYCSM

> <UniProt (SwissProt) Primary ID of Target Chain>
P0C559

> <UniProt (SwissProt) Secondary ID(s) of Target Chain>
P48355,Q59555

> <UniProt (SwissProt) Alternative ID(s) of Target Chain>


> <UniProt (TrEMBL) Submitted Name of Target Chain>


> <UniProt (TrEMBL) Entry Name of Target Chain>


> <UniProt (TrEMBL) Primary ID of Target Chain>


> <UniProt (TrEMBL) Secondary ID(s) of Target Chain>


> <UniProt (TrEMBL) Alternative ID(s) of Target Chain>


$$$$

  Mrv0541 04171609262D          

 24 26  0  0  0  0            999 V2000
    0.7145   -0.4125    0.0000 C   0  0  0  0  0  0  0  0  0  0  0  0
    0.7145    0.4125    0.0000 C   0  0  0  0  0  0  0  0  0  0  0  0
    0.0000    0.8250    0.0000 C   0  0  0  0  0  0  0  0  0  0  0  0
   -0.7145    0.4125    0.0000 C   0  0  0  0  0  0  0  0  0  0  0  0
   -0.7145   -0.4125    0.0000 C   0  0  0  0  0  0  0  0  0  0  0  0
    0.0000   -0.8250    0.0000 C   0  0  0  0  0  0  0  0  0  0  0  0
   -1.4293   -0.8252    0.0000 C   0  0  0  0  0  0  0  0  0  0  0  0
   -2.1731   -0.4848    0.0000 S   0  0  0  0  0  0  0  0  0  0  0  0
   -2.7242   -1.0988    0.0000 C   0  0  0  0  0  0  0  0  0  0  0  0
   -2.3106   -1.8126    0.0000 C   0  0  0  0  0  0  0  0  0  0  0  0
   -1.5039   -1.6398    0.0000 C   0  0  0  0  0  0  0  0  0  0  0  0
   -2.6429   -2.5666    0.0000 C   0  0  0  0  0  0  0  0  0  0  0  0
   -2.2534   -3.0994    0.0000 O   0  0  0  0  0  0  0  0  0  0  0  0
   -3.2991   -2.6378    0.0000 N   0  0  0  0  0  0  0  0  0  0  0  0
   -3.5437   -1.0123    0.0000 N   0  0  0  0  0  0  0  0  0  0  0  0
   -3.8796   -0.2582    0.0000 C   0  0  0  0  0  0  0  0  0  0  0  0
   -4.7004   -0.1715    0.0000 N   0  0  0  0  0  0  0  0  0  0  0  0
   -3.4915    0.2757    0.0000 O   0  0  0  0  0  0  0  0  0  0  0  0
   -5.0363    0.5825    0.0000 C   0  0  0  0  0  0  0  0  0  0  0  0
   -5.8566    0.6703    0.0000 C   0  0  0  0  0  0  0  0  0  0  0  0
   -6.1908    1.4246    0.0000 C   0  0  0  0  0  0  0  0  0  0  0  0
   -5.7046    2.0912    0.0000 C   0  0  0  0  0  0  0  0  0  0  0  0
   -4.8842    2.0034    0.0000 C   0  0  0  0  0  0  0  0  0  0  0  0
   -4.5501    1.2491    0.0000 C   0  0  0  0  0  0  0  0  0  0  0  0
  1  2  4  0  0  0  0
  2  3  4  0  0  0  0
  3  4  4  0  0  0  0
  4  5  4  0  0  0  0
  5  6  4  0  0  0  0
  6  1  4  0  0  0  0
  7  8  4  0  0  0  0
  8  9  4  0  0  0  0
  9 10  4  0  0  0  0
 10 11  4  0  0  0  0
 11  7  4  0  0  0  0
  5  7  1  0  0  0  0
 10 12  1  0  0  0  0
 12 13  2  0  0  0  0
 12 14  1  0  0  0  0
  9 15  1  0  0  0  0
 15 16  1  0  0  0  0
 16 17  1  0  0  0  0
 16 18  2  0  0  0  0
 17 19  1  0  0  0  0
 19 20  4  0  0  0  0
 20 21  4  0  0  0  0
 21 22  4  0  0  0  0
 22 23  4  0  0  0  0
 23 24  4  0  0  0  0
 24 19  4  0  0  0  0
M  END
> <From> 
www.bindingDB.org

> <BindingDB Reactant_set_id>
50302319

> <Ligand InChI>
InChI=1S/C18H15N3O2S/c19-16(22)14-11-15(12-7-3-1-4-8-12)24-17(14)21-18(23)20-13-9-5-2-6-10-13/h1-11H,(H2,19,22)(H2,20,21,23)

> <Ligand InChI Key>
BUXDTSRFPFRDFF-UHFFFAOYSA-N

> <BindingDB MonomerID>
50066085

> <BindingDB Ligand Name>
CHEMBL3402933

> <Target Name Assigned by Curator or DataSource>
DNA gyrase subunit B

> <Target Source Organism According to Curator or DataSource>


> <Ki (nM)>


> <IC50 (nM)>
 1830

> <Kd (nM)>


> <EC50 (nM)>


> <kon (M-1-s-1)>


> <koff (s-1)>


> <pH>


> <Temp C>
25.00

> <Curation/DataSource>
ChEMBL

> <Article DOI>
10.1016/j.bmc.2015.02.032

> <PMID>
25766629

> <PubChem AID>


> <Patent Number>


> <Authors>
Saxena, S; Samala, G; Renuka, J; Sridevi, JP; Yogeeswari, P; Sriram, D

> <Institution>
Birla Institute of Technology&amp; Science-Pilani

> <Link to Ligand in BindingDB>
http://www.bindingdb.org/bind/chemsearch/marvin/MolStructure.jsp?monomerid=50066085

> <Link to Ligand-Target Pair in BindingDB>
http://www.bindingdb.org/jsp/dbsearch/PrimarySearch_ki.jsp?energyterm=kJ/mole&tag=pol&polymerid=50006452&target=DNA+gyrase+subunit+B&column=ki&startPg=0&Increment=50&submit=Search

> <Link to Ligand-Target Pair in BindingDB>
http://www.bindingdb.org/jsp/dbsearch/PrimarySearch_ki.jsp?energyterm=kJ/mole&tag=r21&monomerid=50066085&enzyme=DNA+gyrase+subunit+B&column=ki&startPg=0&Increment=50&submit=Search

> <Ligand HET ID in PDB>


> <PDB ID(s) for Ligand-Target Complex>


> <PubChem CID>
13742733

> <PubChem SID>
313071611

> <ChEBI ID of Ligand>


> <ChEMBL ID of Ligand>


> <DrugBank ID of Ligand>


> <IUPHAR_GRAC ID of Ligand>


> <KEGG ID of Ligand>


> <ZINC ID of Ligand>


> <Number of Protein Chains in Target (>1 implies a multichain complex)>
1

> <BindingDB Target Chain Sequence>
MAAQKNNAPKEYGADSITILEGLEAVRKRPGMYIGSTGERGLHHLIWEVVDNAVDEAMAGFATRVDVKIHADGSVEVRDDGRGIPVEMHATGMPTIDVVMTQLHAGGKFDGETYAVSGGLHGVGVSVVNALSTRLEATVLRDGYEWFQYYDRSVPGKLKQGGETKETGTTIRFWADPEIFETTDYNFETVARRLQEMAFLNKGLTIELTDERVTAEEVVDDVVKDTAEAPKTADEKAAEATGPSKVKHRVFHYPGGLVDYVKHINRTKTPIQQSIIDFDGKGPGHEVEIAMQWNAGYSESVHTFANTINTHEGGTHEEGFRAALTSVVNRYAKDKKLLKDKDPNLTGDDIREGLAAVISVKVAEPQFEGQTKTKLGNTEVKSFVQKICNEQLQHWFEANPAEAKTVVNKAVSSAQARIAARKARELVRRKSATDIGGLPGKLADCRSTDPSKSELYVVEGDSAGGSAKSGRDSMFQAILPLRGKIINVEKARIDRVLKNTEVQSIITALGTGIHDEFDISKLRYHKIVLMADADVDGQHISTLLLTLLFRFMKPLVENGHIFLAQPPLYKLKWQRSEPEFAYSDRERDGLLEAGRAAGKKINVDDGIQRYKGLGEMDAKELWETTMDPSVRVLRQVTLDDAAAADELFSILMGEDVEARRSFITRNAKDVRFLDV

> <PDB ID(s) of Target Chain>
4BAE

> <UniProt (SwissProt) Recommended Name of Target Chain>
DNA gyrase subunit B

> <UniProt (SwissProt) Entry Name of Target Chain>
GYRB_MYCSM

> <UniProt (SwissProt) Primary ID of Target Chain>
P0C559

> <UniProt (SwissProt) Secondary ID(s) of Target Chain>
P48355,Q59555

> <UniProt (SwissProt) Alternative ID(s) of Target Chain>


> <UniProt (TrEMBL) Submitted Name of Target Chain>


> <UniProt (TrEMBL) Entry Name of Target Chain>


> <UniProt (TrEMBL) Primary ID of Target Chain>


> <UniProt (TrEMBL) Secondary ID(s) of Target Chain>


> <UniProt (TrEMBL) Alternative ID(s) of Target Chain>


$$$$

  Mrv0541 11241408262D          

 30 33  0  0  0  0            999 V2000
   -1.1806    1.8542    0.0000 C   0  0  0  0  0  0  0  0  0  0  0  0
   -1.1818    1.0268    0.0000 C   0  0  0  0  0  0  0  0  0  0  0  0
   -0.4669    0.6140    0.0000 C   0  0  0  0  0  0  0  0  0  0  0  0
   -0.4687    2.2670    0.0000 C   0  0  0  0  0  0  0  0  0  0  0  0
    1.0379    2.1119    0.0000 N   0  0  0  0  0  0  0  0  0  0  0  0
    0.2466    1.8578    0.0000 C   0  0  0  0  0  0  0  0  0  0  0  0
    0.2448    1.0261    0.0000 N   0  0  0  0  0  0  0  0  0  0  0  0
    1.0360    0.7687    0.0000 C   0  0  0  0  0  0  0  0  0  0  0  0
    1.5240    1.4422    0.0000 C   0  0  0  0  0  0  0  0  0  0  0  0
   -1.8931    2.2664    0.0000 C   0  0  0  0  0  0  0  0  0  0  0  0
   -1.8919    3.0925    0.0000 C   0  0  0  0  0  0  0  0  0  0  0  0
   -2.6056    3.5047    0.0000 N   0  0  0  0  0  0  0  0  0  0  0  0
   -3.3210    3.0920    0.0000 C   0  0  0  0  0  0  0  0  0  0  0  0
   -3.3182    2.2627    0.0000 C   0  0  0  0  0  0  0  0  0  0  0  0
   -2.6038    1.8542    0.0000 C   0  0  0  0  0  0  0  0  0  0  0  0
   -0.4649   -0.2083    0.0000 C   0  0  0  0  0  0  0  0  0  0  0  0
   -1.1808   -0.6206    0.0000 N   0  0  0  0  0  0  0  0  0  0  0  0
   -1.1807   -1.4448    0.0000 C   0  0  0  0  0  0  0  0  0  0  0  0
   -0.4655   -1.8577    0.0000 C   0  0  0  0  0  0  0  0  0  0  0  0
    0.2511   -1.4404    0.0000 C   0  0  0  0  0  0  0  0  0  0  0  0
    0.2475   -0.6175    0.0000 N   0  0  0  0  0  0  0  0  0  0  0  0
    2.3490    1.4426    0.0000 N   0  0  0  0  0  0  0  0  0  0  0  0
    2.7612    2.1572    0.0000 C   0  0  0  0  0  0  0  0  0  0  0  0
    3.5862    2.1575    0.0000 N   0  0  0  0  0  0  0  0  0  0  0  0
    2.3484    2.8715    0.0000 O   0  0  0  0  0  0  0  0  0  0  0  0
    3.9990    1.4432    0.0000 C   0  0  0  0  0  0  0  0  0  0  0  0
    4.8240    1.4436    0.0000 C   0  0  0  0  0  0  0  0  0  0  0  0
   -0.4639   -2.6827    0.0000 C   0  0  0  0  0  0  0  0  0  0  0  0
   -1.1776   -3.0966    0.0000 C   0  0  0  0  0  0  0  0  0  0  0  0
    0.2513   -3.0939    0.0000 C   0  0  0  0  0  0  0  0  0  0  0  0
 14 15  1  0  0  0  0
 15 10  2  0  0  0  0
  1 10  1  0  0  0  0
  6  4  1  0  0  0  0
  5  6  2  0  0  0  0
 16 17  2  0  0  0  0
  7  8  1  0  0  0  0
 17 18  1  0  0  0  0
  8  9  2  0  0  0  0
 18 19  2  0  0  0  0
  9  5  1  0  0  0  0
 19 20  1  0  0  0  0
  4  1  2  0  0  0  0
 20 21  2  0  0  0  0
 21 16  1  0  0  0  0
  3 16  1  0  0  0  0
  6  7  1  0  0  0  0
  9 22  1  0  0  0  0
 10 11  1  0  0  0  0
 22 23  1  0  0  0  0
 23 24  1  0  0  0  0
 11 12  2  0  0  0  0
 23 25  2  0  0  0  0
  2  3  2  0  0  0  0
 24 26  1  0  0  0  0
 12 13  1  0  0  0  0
 26 27  1  0  0  0  0
  3  7  1  0  0  0  0
 19 28  1  0  0  0  0
 13 14  2  0  0  0  0
 28 29  1  0  0  0  0
  1  2  1  0  0  0  0
 28 30  1  0  0  0  0
M  END
> <From> 
www.bindingDB.org

> <BindingDB Reactant_set_id>
50904823

> <Ligand InChI>
InChI=1S/C22H23N7O/c1-4-24-22(30)28-19-13-29-18(21-25-11-17(12-26-21)14(2)3)8-16(9-20(29)27-19)15-6-5-7-23-10-15/h5-14H,4H2,1-3H3,(H2,24,28,30)

> <Ligand InChI Key>
PWXQYTWWLZHTSG-UHFFFAOYSA-N

> <BindingDB MonomerID>
50378432

> <BindingDB Ligand Name>
CHEMBL571959

> <Target Name Assigned by Curator or DataSource>
DNA gyrase subunit B

> <Target Source Organism According to Curator or DataSource>
Streptococcus pneumoniae

> <Ki (nM)>


> <IC50 (nM)>
 1910

> <Kd (nM)>


> <EC50 (nM)>


> <kon (M-1-s-1)>


> <koff (s-1)>


> <pH>


> <Temp C>


> <Curation/DataSource>
ChEMBL

> <Article DOI>
10.1016/j.bmcl.2009.07.141

> <PMID>
19683922

> <PubChem AID>


> <Patent Number>


> <Authors>
Starr, JT; Sciotti, RJ; Hanna, DL; Huband, MD; Mullins, LM; Cai, H; Gage, JW; Lockard, M; Rauckhorst, MR; Owen, RM; Lall, MS; Tomilo, M; Chen, H; McCurdy, SP; Barbachyn, MR

> <Institution>
Pfizer Inc.

> <Link to Ligand in BindingDB>
http://www.bindingdb.org/bind/chemsearch/marvin/MolStructure.jsp?monomerid=50378432

> <Link to Ligand-Target Pair in BindingDB>
http://www.bindingdb.org/jsp/dbsearch/PrimarySearch_ki.jsp?energyterm=kJ/mole&tag=pol&polymerid=50005944&target=DNA+gyrase+subunit+B&column=ki&startPg=0&Increment=50&submit=Search

> <Link to Ligand-Target Pair in BindingDB>
http://www.bindingdb.org/jsp/dbsearch/PrimarySearch_ki.jsp?energyterm=kJ/mole&tag=r21&monomerid=50378432&enzyme=DNA+gyrase+subunit+B&column=ki&startPg=0&Increment=50&submit=Search

> <Ligand HET ID in PDB>


> <PDB ID(s) for Ligand-Target Complex>


> <PubChem CID>
45484816

> <PubChem SID>
160857515

> <ChEBI ID of Ligand>


> <ChEMBL ID of Ligand>
CHEMBL571959

> <DrugBank ID of Ligand>


> <IUPHAR_GRAC ID of Ligand>


> <KEGG ID of Ligand>


> <ZINC ID of Ligand>
ZINC45286272

> <Number of Protein Chains in Target (>1 implies a multichain complex)>
1

> <BindingDB Target Chain Sequence>
MTEEIKNLQAQDYDASQIQVLEGLEAVRMRPGMYIGSTSKEGLHHLVWEIVDNSIDEALAGFASHIQVFIEPDDSITVVDDGRGIPVDIQEKTGRPAVETVFTVLHAGGKFGGGGYKVSGGLHGVGSSVVNALSTQLDVHVHKNGKIHYQEYRRGHVVADLEIVGDTDKTGTTVHFTPDPKIFTETTIFDFDKLNKRIQELAFLNRGLQISITDKRQGLEQTKHYHYEGGIASYVEYINENKDVIFDTPIYTDGEMDDITVEVAMQYTTGYHENVMSFANNIHTHEGGTHEQGFRTALTRVINDYARKNKLLKDNEDNLTGEDVREGLTAVISVKHPNPQFEGQTKTKLGNSEVVKITNRLFSEAFSDFLMENPQIAKRIVEKGILAAKARVAAKRAREVTRKKSGLEISNLPGKLADCSSNNPAETELFIVEGDSAGGSAKSGRNREFQAILPIRGKILNVEKASMDKILANEEIRSLFTAMGTGFGAEFDVSKARYQKLVLMTDADVDGAHIRTLLLTLIYRYMKPILEAGYVYIAQPPIYGVKVGSEIKEYIQPGADQEIKLQEALARYSEGRTKPTIQRYKGLGEMDDHQLWETTMDPEHRLMARVSVDDAAEADKIFDMLMGDRVEPRREFIEENAVYSTLDV

> <PDB ID(s) of Target Chain>
4Z2C,4Z2D,4Z2E

> <UniProt (SwissProt) Recommended Name of Target Chain>
DNA gyrase subunit B

> <UniProt (SwissProt) Entry Name of Target Chain>
GYRB_STRPN

> <UniProt (SwissProt) Primary ID of Target Chain>
P0A4L9

> <UniProt (SwissProt) Secondary ID(s) of Target Chain>
P48373

> <UniProt (SwissProt) Alternative ID(s) of Target Chain>


> <UniProt (TrEMBL) Submitted Name of Target Chain>


> <UniProt (TrEMBL) Entry Name of Target Chain>


> <UniProt (TrEMBL) Primary ID of Target Chain>


> <UniProt (TrEMBL) Secondary ID(s) of Target Chain>


> <UniProt (TrEMBL) Alternative ID(s) of Target Chain>


$$$$

  SciTegic12221716142D

 27 29  0  0  0  0            999 V2000
   10.3778   -8.8554    0.0000 O   0  0
    9.9692   -9.5644    0.0000 C   0  0
    9.1478   -9.5644    0.0000 C   0  0
    8.6636  -10.2277    0.0000 C   0  0
    7.8863   -9.9730    0.0000 C   0  0
    7.2231  -10.4573    0.0000 Br  0  0
    7.8863   -9.1558    0.0000 C   0  0
    7.2231   -8.6716    0.0000 Br  0  0
    8.6636   -8.9012    0.0000 N   0  0
   10.3778  -10.2735    0.0000 N   0  0
   11.1991  -10.2735    0.0000 C   0  0
   11.6792   -9.6103    0.0000 N   0  0
   12.4564   -9.8649    0.0000 C   0  0
   13.1697   -9.4563    0.0000 C   0  0
   13.8787   -9.8649    0.0000 C   0  0
   13.8787  -10.6863    0.0000 C   0  0
   14.5878  -11.0948    0.0000 N   0  0
   15.2969  -10.6863    0.0000 C   0  0
   15.2969   -9.8649    0.0000 C   0  0
   16.0101   -9.4563    0.0000 C   0  0
   16.7192   -9.8649    0.0000 O   0  0
   16.7192  -10.6863    0.0000 C   0  0
   16.0101   -8.6350    0.0000 O   0  0
   16.0101  -11.0948    0.0000 O   0  0
   13.1697  -11.0948    0.0000 C   0  0
   12.4564  -10.6863    0.0000 C   0  0
   11.6792  -10.9368    0.0000 S   0  0
  1  2  2  0
  2  3  1  0
  3  4  2  0
  4  5  1  0
  5  6  1  0
  5  7  2  0
  7  8  1  0
  7  9  1  0
  3  9  1  0
  2 10  1  0
 10 11  1  0
 11 12  2  0
 12 13  1  0
 13 14  2  0
 14 15  1  0
 15 16  2  0
 16 17  1  0
 17 18  1  0
 18 19  1  0
 19 20  1  0
 20 21  1  0
 21 22  1  0
 20 23  2  0
 18 24  2  0
 16 25  1  0
 25 26  2  0
 13 26  1  0
 26 27  1  0
 11 27  1  0
M  END
> <From> 
www.bindingDB.org

> <BindingDB Reactant_set_id>
50524102

> <Ligand InChI>
InChI=1S/C16H12Br2N4O4S/c1-26-13(24)6-12(23)19-7-2-3-9-11(4-7)27-16(21-9)22-15(25)10-5-8(17)14(18)20-10/h2-5,20H,6H2,1H3,(H,19,23)(H,21,22,25)

> <Ligand InChI Key>
UXKCJANDRHWSCJ-UHFFFAOYSA-N

> <BindingDB MonomerID>
50198236

> <BindingDB Ligand Name>
CHEMBL3962799

> <Target Name Assigned by Curator or DataSource>
DNA Gyrase Subunit B

> <Target Source Organism According to Curator or DataSource>
Escherichia coli

> <Ki (nM)>


> <IC50 (nM)>
 2000

> <Kd (nM)>


> <EC50 (nM)>


> <kon (M-1-s-1)>


> <koff (s-1)>


> <pH>


> <Temp C>


> <Curation/DataSource>
ChEMBL

> <Article DOI>
10.1021/acs.jmedchem.6b00864

> <PMID>
27541007

> <PubChem AID>


> <Patent Number>


> <Authors>
Gjorgjieva, M; Tomaic, T; Barancokova, M; Katsamakas, S; Ila, J; Tammela, P; Peterlin Maic, L; Kikelj, D

> <Institution>
University of Ljubljana

> <Link to Ligand in BindingDB>
http://www.bindingdb.org/bind/chemsearch/marvin/MolStructure.jsp?monomerid=50198236

> <Link to Ligand-Target Pair in BindingDB>
http://www.bindingdb.org/jsp/dbsearch/PrimarySearch_ki.jsp?energyterm=kJ/mole&tag=pol&polymerid=2630&target=DNA+Gyrase+Subunit+B&column=ki&startPg=0&Increment=50&submit=Search

> <Link to Ligand-Target Pair in BindingDB>
http://www.bindingdb.org/jsp/dbsearch/PrimarySearch_ki.jsp?energyterm=kJ/mole&tag=r21&monomerid=50198236&enzyme=DNA+Gyrase+Subunit+B&column=ki&startPg=0&Increment=50&submit=Search

> <Ligand HET ID in PDB>


> <PDB ID(s) for Ligand-Target Complex>


> <PubChem CID>
134152196

> <PubChem SID>
375978188

> <ChEBI ID of Ligand>


> <ChEMBL ID of Ligand>


> <DrugBank ID of Ligand>


> <IUPHAR_GRAC ID of Ligand>


> <KEGG ID of Ligand>


> <ZINC ID of Ligand>


> <Number of Protein Chains in Target (>1 implies a multichain complex)>
1

> <BindingDB Target Chain Sequence>
MSNSYDSSSIKVLKGLDAVRKRPGMYIGDTDDGTGLHHMVFEVVDNAIDEALAGHCKEII
VTIHADNSVSVQDDGRGIPTGIHPEEGVSAAEVIMTVLHAGGKFDDNSYKVSGGLHGVGV
SVVNALSQKLELVIQREGKIHRQIYEHGVPQAPLAVTGETEKTGTMVRFWPSLETFTNVT
EFEYEILAKRLRELSFLNSGVSIRLRDKRDGKEDHFHYEGGIKAFVEYLNKNKTPIHPNI
FYFSTEKDGIGVEVALQWNDGFQENIYCFTNNIPQRDGGTHLAGFRAAMTRTLNAYMDKE
GYSKKAKVSATGDDAREGLIAVVSVKVPDPKFSSQTKDKLVSSEVKSAVEQQMNELLAEY
LLENPTDAKIVVGKIIDAARAREAARRAREMTRRKGALDLAGLPGKLADCQERDPALSEL
YLVEGDSAGGSAKQGRNRKNQAILPLKGKILNVEKARFDKMLSSQEVATLITALGCGIGR
DEYNPDKLRYHSIIIMTDADVDGSHIRTLLLTFFYRQMPEIVERGHVYIAQPPLYKVKKG
KQEQYIKDDEAMDQYQISIALDGATLHTNASAPALAGEALEKLVSEYNATQKMINRMERR
YPKAMLKELIYQPTLTEADLSDEQTVTRWVNALVSELNDKEQHGSQWKFDVHTNAEQNLF
EPIVRVRTHGVDTDYPLDHEFITGGEYRRICTLGEKLRGLLEEDAFIERGERRQPVASFE
QALDWLVKESRRGLSIQRYKGLGEMNPEQLWETTMDPESRRMLRVTVKDAIAADQLFTTL
MGDAVEPRRAFIEENALKAANIDI

> <PDB ID(s) of Target Chain>
1KZN,3G7E,3NUH,4DUH,4HYP,4KFG,4PRV,4PRX,4PU9,4WUB,4WUC,4WUD,4XTJ,4ZVI,5L3J,5MMN,5MMO,5MMP,5Z4H,5Z4O,5Z9B,5Z9E,5Z9F,5Z9L,5Z9M,5Z9N,5Z9Q,6ENG,6F86,6F8J,6F94,6F96

> <UniProt (SwissProt) Recommended Name of Target Chain>
DNA gyrase subunit B

> <UniProt (SwissProt) Entry Name of Target Chain>
GYRB_ECOLI

> <UniProt (SwissProt) Primary ID of Target Chain>
P0AES6

> <UniProt (SwissProt) Secondary ID(s) of Target Chain>
O08438,P06982,Q2M811

> <UniProt (SwissProt) Alternative ID(s) of Target Chain>


> <UniProt (TrEMBL) Submitted Name of Target Chain>


> <UniProt (TrEMBL) Entry Name of Target Chain>


> <UniProt (TrEMBL) Primary ID of Target Chain>


> <UniProt (TrEMBL) Secondary ID(s) of Target Chain>


> <UniProt (TrEMBL) Alternative ID(s) of Target Chain>


$$$$

  SciTegic12221704012D

 20 22  0  0  0  0            999 V2000
   11.3468   -8.7013    0.0000 N   0  0
   10.6419   -8.2926    0.0000 C   0  0
   10.6420   -7.4754    0.0000 C   0  0
    9.9330   -7.0667    0.0000 C   0  0
    9.2280   -7.4752    0.0000 C   0  0
    8.4467   -7.2204    0.0000 N   0  0
    7.9664   -7.8836    0.0000 C   0  0
    7.1492   -7.8834    0.0000 N   0  0
    6.7407   -7.1743    0.0000 C   0  0
    7.1495   -6.4653    0.0000 C   0  0
    7.9640   -6.3814    0.0000 C   0  0
    8.1349   -5.5830    0.0000 C   0  0
    8.8781   -5.2487    0.0000 Br  0  0
    7.4259   -5.1743    0.0000 C   0  0
    7.3420   -4.3598    0.0000 Br  0  0
    6.8193   -5.7179    0.0000 N   0  0
    5.9235   -7.1742    0.0000 O   0  0
    8.4464   -8.5428    0.0000 S   0  0
    9.2278   -8.2924    0.0000 C   0  0
    9.9327   -8.7011    0.0000 C   0  0
  1  2  1  0
  2  3  2  0
  3  4  1  0
  4  5  2  0
  5  6  1  0
  6  7  2  0
  7  8  1  0
  8  9  1  0
  9 10  1  0
 10 11  2  0
 11 12  1  0
 12 13  1  0
 12 14  2  0
 14 15  1  0
 14 16  1  0
 10 16  1  0
  9 17  2  0
  7 18  1  0
  5 19  1  0
 18 19  1  0
 19 20  2  0
  2 20  1  0
M  END
> <From> 
www.bindingDB.org

> <BindingDB Reactant_set_id>
50524136

> <Ligand InChI>
InChI=1S/C12H8Br2N4OS/c13-6-4-8(16-10(6)14)11(19)18-12-17-7-2-1-5(15)3-9(7)20-12/h1-4,16H,15H2,(H,17,18,19)

> <Ligand InChI Key>
ANDKBRLNIKATCM-UHFFFAOYSA-N

> <BindingDB MonomerID>
50198321

> <BindingDB Ligand Name>
CHEMBL3944293

> <Target Name Assigned by Curator or DataSource>
DNA Gyrase Subunit B

> <Target Source Organism According to Curator or DataSource>
Escherichia coli

> <Ki (nM)>


> <IC50 (nM)>
 2000

> <Kd (nM)>


> <EC50 (nM)>


> <kon (M-1-s-1)>


> <koff (s-1)>


> <pH>


> <Temp C>


> <Curation/DataSource>
ChEMBL

> <Article DOI>
10.1021/acs.jmedchem.6b00864

> <PMID>
27541007

> <PubChem AID>


> <Patent Number>


> <Authors>
Gjorgjieva, M; Tomaic, T; Barancokova, M; Katsamakas, S; Ila, J; Tammela, P; Peterlin Maic, L; Kikelj, D

> <Institution>
University of Ljubljana

> <Link to Ligand in BindingDB>
http://www.bindingdb.org/bind/chemsearch/marvin/MolStructure.jsp?monomerid=50198321

> <Link to Ligand-Target Pair in BindingDB>
http://www.bindingdb.org/jsp/dbsearch/PrimarySearch_ki.jsp?energyterm=kJ/mole&tag=pol&polymerid=2630&target=DNA+Gyrase+Subunit+B&column=ki&startPg=0&Increment=50&submit=Search

> <Link to Ligand-Target Pair in BindingDB>
http://www.bindingdb.org/jsp/dbsearch/PrimarySearch_ki.jsp?energyterm=kJ/mole&tag=r21&monomerid=50198321&enzyme=DNA+Gyrase+Subunit+B&column=ki&startPg=0&Increment=50&submit=Search

> <Ligand HET ID in PDB>


> <PDB ID(s) for Ligand-Target Complex>


> <PubChem CID>
134146043

> <PubChem SID>
375978205

> <ChEBI ID of Ligand>


> <ChEMBL ID of Ligand>


> <DrugBank ID of Ligand>


> <IUPHAR_GRAC ID of Ligand>


> <KEGG ID of Ligand>


> <ZINC ID of Ligand>


> <Number of Protein Chains in Target (>1 implies a multichain complex)>
1

> <BindingDB Target Chain Sequence>
MSNSYDSSSIKVLKGLDAVRKRPGMYIGDTDDGTGLHHMVFEVVDNAIDEALAGHCKEII
VTIHADNSVSVQDDGRGIPTGIHPEEGVSAAEVIMTVLHAGGKFDDNSYKVSGGLHGVGV
SVVNALSQKLELVIQREGKIHRQIYEHGVPQAPLAVTGETEKTGTMVRFWPSLETFTNVT
EFEYEILAKRLRELSFLNSGVSIRLRDKRDGKEDHFHYEGGIKAFVEYLNKNKTPIHPNI
FYFSTEKDGIGVEVALQWNDGFQENIYCFTNNIPQRDGGTHLAGFRAAMTRTLNAYMDKE
GYSKKAKVSATGDDAREGLIAVVSVKVPDPKFSSQTKDKLVSSEVKSAVEQQMNELLAEY
LLENPTDAKIVVGKIIDAARAREAARRAREMTRRKGALDLAGLPGKLADCQERDPALSEL
YLVEGDSAGGSAKQGRNRKNQAILPLKGKILNVEKARFDKMLSSQEVATLITALGCGIGR
DEYNPDKLRYHSIIIMTDADVDGSHIRTLLLTFFYRQMPEIVERGHVYIAQPPLYKVKKG
KQEQYIKDDEAMDQYQISIALDGATLHTNASAPALAGEALEKLVSEYNATQKMINRMERR
YPKAMLKELIYQPTLTEADLSDEQTVTRWVNALVSELNDKEQHGSQWKFDVHTNAEQNLF
EPIVRVRTHGVDTDYPLDHEFITGGEYRRICTLGEKLRGLLEEDAFIERGERRQPVASFE
QALDWLVKESRRGLSIQRYKGLGEMNPEQLWETTMDPESRRMLRVTVKDAIAADQLFTTL
MGDAVEPRRAFIEENALKAANIDI

> <PDB ID(s) of Target Chain>
1KZN,3G7E,3NUH,4DUH,4HYP,4KFG,4PRV,4PRX,4PU9,4WUB,4WUC,4WUD,4XTJ,4ZVI,5L3J,5MMN,5MMO,5MMP,5Z4H,5Z4O,5Z9B,5Z9E,5Z9F,5Z9L,5Z9M,5Z9N,5Z9Q,6ENG,6F86,6F8J,6F94,6F96

> <UniProt (SwissProt) Recommended Name of Target Chain>
DNA gyrase subunit B

> <UniProt (SwissProt) Entry Name of Target Chain>
GYRB_ECOLI

> <UniProt (SwissProt) Primary ID of Target Chain>
P0AES6

> <UniProt (SwissProt) Secondary ID(s) of Target Chain>
O08438,P06982,Q2M811

> <UniProt (SwissProt) Alternative ID(s) of Target Chain>


> <UniProt (TrEMBL) Submitted Name of Target Chain>


> <UniProt (TrEMBL) Entry Name of Target Chain>


> <UniProt (TrEMBL) Primary ID of Target Chain>


> <UniProt (TrEMBL) Secondary ID(s) of Target Chain>


> <UniProt (TrEMBL) Alternative ID(s) of Target Chain>


$$$$

  Mrv0541 04171609262D          

 29 32  0  0  0  0            999 V2000
   -1.4361    0.4117    0.0000 C   0  0  0  0  0  0  0  0  0  0  0  0
   -1.4361   -0.4117    0.0000 C   0  0  0  0  0  0  0  0  0  0  0  0
   -0.7130   -0.8235    0.0000 C   0  0  0  0  0  0  0  0  0  0  0  0
   -0.7130    0.8235    0.0000 C   0  0  0  0  0  0  0  0  0  0  0  0
    0.0000    0.4117    0.0000 C   0  0  0  0  0  0  0  0  0  0  0  0
    0.0000   -0.4117    0.0000 C   0  0  0  0  0  0  0  0  0  0  0  0
    0.7130   -0.8235    0.0000 N   0  0  0  0  0  0  0  0  0  0  0  0
    1.4261   -0.4117    0.0000 C   0  0  0  0  0  0  0  0  0  0  0  0
    1.4261    0.4117    0.0000 C   0  0  0  0  0  0  0  0  0  0  0  0
    0.7130    0.8235    0.0000 C   0  0  0  0  0  0  0  0  0  0  0  0
    0.7130    1.6489    0.0000 N   0  0  0  0  0  0  0  0  0  0  0  0
   -0.0008    2.0627    0.0000 C   0  0  0  0  0  0  0  0  0  0  0  0
    0.0006    2.8877    0.0000 C   0  0  0  0  0  0  0  0  0  0  0  0
    0.7158    3.2990    0.0000 C   0  0  0  0  0  0  0  0  0  0  0  0
    1.4296    2.8853    0.0000 C   0  0  0  0  0  0  0  0  0  0  0  0
    1.4282    2.0603    0.0000 C   0  0  0  0  0  0  0  0  0  0  0  0
    0.7188    4.1245    0.0000 N   0  0  0  0  0  0  0  0  0  0  0  0
    1.4350    4.5350    0.0000 C   0  0  0  0  0  0  0  0  0  0  0  0
    2.0054    4.2031    0.0000 S   0  0  0  0  0  0  0  0  0  0  0  0
    1.4380    5.3604    0.0000 N   0  0  0  0  0  0  0  0  0  0  0  0
    2.1541    5.7709    0.0000 C   0  0  0  0  0  0  0  0  0  0  0  0
    2.1584    6.5960    0.0000 C   0  0  0  0  0  0  0  0  0  0  0  0
    2.8750    7.0048    0.0000 C   0  0  0  0  0  0  0  0  0  0  0  0
    3.5873    6.5887    0.0000 C   0  0  0  0  0  0  0  0  0  0  0  0
    3.5831    5.7637    0.0000 C   0  0  0  0  0  0  0  0  0  0  0  0
    2.8666    5.3548    0.0000 C   0  0  0  0  0  0  0  0  0  0  0  0
    1.9977   -0.7417    0.0000 C   0  0  0  0  0  0  0  0  0  0  0  0
   -2.1500    0.8260    0.0000 O   0  0  0  0  0  0  0  0  0  0  0  0
   -2.1490    1.4860    0.0000 C   0  0  0  0  0  0  0  0  0  0  0  0
  1  2  4  0  0  0  0
  2  3  4  0  0  0  0
  3  6  4  0  0  0  0
  5  4  4  0  0  0  0
  4  1  4  0  0  0  0
  5  6  4  0  0  0  0
  6  7  4  0  0  0  0
  7  8  4  0  0  0  0
  8  9  4  0  0  0  0
  9 10  4  0  0  0  0
 10  5  4  0  0  0  0
 11 12  1  0  0  0  0
 11 16  1  0  0  0  0
 12 13  1  0  0  0  0
 13 14  1  0  0  0  0
 14 15  1  0  0  0  0
 15 16  1  0  0  0  0
 10 11  1  0  0  0  0
 14 17  1  0  0  0  0
 17 18  1  0  0  0  0
 18 19  2  0  0  0  0
 18 20  1  0  0  0  0
 20 21  1  0  0  0  0
 21 22  4  0  0  0  0
 22 23  4  0  0  0  0
 23 24  4  0  0  0  0
 24 25  4  0  0  0  0
 25 26  4  0  0  0  0
 26 21  4  0  0  0  0
  8 27  1  0  0  0  0
  1 28  1  0  0  0  0
 28 29  1  0  0  0  0
M  END
> <From> 
www.bindingDB.org

> <BindingDB Reactant_set_id>
50303837

> <Ligand InChI>
InChI=1S/C23H26N4OS/c1-16-14-22(20-15-19(28-2)8-9-21(20)24-16)27-12-10-18(11-13-27)26-23(29)25-17-6-4-3-5-7-17/h3-9,14-15,18H,10-13H2,1-2H3,(H2,25,26,29)

> <Ligand InChI Key>
FNSJYMQAIJAQAS-UHFFFAOYSA-N

> <BindingDB MonomerID>
50067151

> <BindingDB Ligand Name>
CHEMBL3403272

> <Target Name Assigned by Curator or DataSource>
DNA gyrase subunit B

> <Target Source Organism According to Curator or DataSource>


> <Ki (nM)>


> <IC50 (nM)>
 2140

> <Kd (nM)>


> <EC50 (nM)>


> <kon (M-1-s-1)>


> <koff (s-1)>


> <pH>


> <Temp C>


> <Curation/DataSource>
ChEMBL

> <Article DOI>
10.1016/j.bmc.2015.03.004

> <PMID>
25801151

> <PubChem AID>


> <Patent Number>


> <Authors>
Medapi, B; Renuka, J; Saxena, S; Sridevi, JP; Medishetti, R; Kulkarni, P; Yogeeswari, P; Sriram, D

> <Institution>
Birla Institute of Technology&amp; Science-Pilani

> <Link to Ligand in BindingDB>
http://www.bindingdb.org/bind/chemsearch/marvin/MolStructure.jsp?monomerid=50067151

> <Link to Ligand-Target Pair in BindingDB>
http://www.bindingdb.org/jsp/dbsearch/PrimarySearch_ki.jsp?energyterm=kJ/mole&tag=pol&polymerid=50006452&target=DNA+gyrase+subunit+B&column=ki&startPg=0&Increment=50&submit=Search

> <Link to Ligand-Target Pair in BindingDB>
http://www.bindingdb.org/jsp/dbsearch/PrimarySearch_ki.jsp?energyterm=kJ/mole&tag=r21&monomerid=50067151&enzyme=DNA+gyrase+subunit+B&column=ki&startPg=0&Increment=50&submit=Search

> <Ligand HET ID in PDB>


> <PDB ID(s) for Ligand-Target Complex>


> <PubChem CID>
118729688

> <PubChem SID>
313071782

> <ChEBI ID of Ligand>


> <ChEMBL ID of Ligand>


> <DrugBank ID of Ligand>


> <IUPHAR_GRAC ID of Ligand>


> <KEGG ID of Ligand>


> <ZINC ID of Ligand>


> <Number of Protein Chains in Target (>1 implies a multichain complex)>
1

> <BindingDB Target Chain Sequence>
MAAQKNNAPKEYGADSITILEGLEAVRKRPGMYIGSTGERGLHHLIWEVVDNAVDEAMAGFATRVDVKIHADGSVEVRDDGRGIPVEMHATGMPTIDVVMTQLHAGGKFDGETYAVSGGLHGVGVSVVNALSTRLEATVLRDGYEWFQYYDRSVPGKLKQGGETKETGTTIRFWADPEIFETTDYNFETVARRLQEMAFLNKGLTIELTDERVTAEEVVDDVVKDTAEAPKTADEKAAEATGPSKVKHRVFHYPGGLVDYVKHINRTKTPIQQSIIDFDGKGPGHEVEIAMQWNAGYSESVHTFANTINTHEGGTHEEGFRAALTSVVNRYAKDKKLLKDKDPNLTGDDIREGLAAVISVKVAEPQFEGQTKTKLGNTEVKSFVQKICNEQLQHWFEANPAEAKTVVNKAVSSAQARIAARKARELVRRKSATDIGGLPGKLADCRSTDPSKSELYVVEGDSAGGSAKSGRDSMFQAILPLRGKIINVEKARIDRVLKNTEVQSIITALGTGIHDEFDISKLRYHKIVLMADADVDGQHISTLLLTLLFRFMKPLVENGHIFLAQPPLYKLKWQRSEPEFAYSDRERDGLLEAGRAAGKKINVDDGIQRYKGLGEMDAKELWETTMDPSVRVLRQVTLDDAAAADELFSILMGEDVEARRSFITRNAKDVRFLDV

> <PDB ID(s) of Target Chain>
4BAE

> <UniProt (SwissProt) Recommended Name of Target Chain>
DNA gyrase subunit B

> <UniProt (SwissProt) Entry Name of Target Chain>
GYRB_MYCSM

> <UniProt (SwissProt) Primary ID of Target Chain>
P0C559

> <UniProt (SwissProt) Secondary ID(s) of Target Chain>
P48355,Q59555

> <UniProt (SwissProt) Alternative ID(s) of Target Chain>


> <UniProt (TrEMBL) Submitted Name of Target Chain>


> <UniProt (TrEMBL) Entry Name of Target Chain>


> <UniProt (TrEMBL) Primary ID of Target Chain>


> <UniProt (TrEMBL) Secondary ID(s) of Target Chain>


> <UniProt (TrEMBL) Alternative ID(s) of Target Chain>


$$$$

  Mrv0541 03201611132D          

 25 28  0  0  0  0            999 V2000
   26.9334  -12.3118    0.0000 N   0  0  0  0  0  0  0  0  0  0  0  0
   26.3215  -12.8645    0.0000 C   0  0  0  0  0  0  0  0  0  0  0  0
   25.5374  -12.6075    0.0000 C   0  0  0  0  0  0  0  0  0  0  0  0
   25.3693  -11.8021    0.0000 N   0  0  0  0  0  0  0  0  0  0  0  0
   25.9811  -11.2493    0.0000 C   0  0  0  0  0  0  0  0  0  0  0  0
   26.7653  -11.5063    0.0000 C   0  0  0  0  0  0  0  0  0  0  0  0
   27.7176  -12.5645    0.0000 C   0  0  0  0  0  0  0  0  0  0  0  0
   27.8899  -13.3742    0.0000 O   0  0  0  0  0  0  0  0  0  0  0  0
   28.3336  -12.0160    0.0000 N   0  0  0  0  0  0  0  0  0  0  0  0
   29.1280  -12.2268    0.0000 C   0  0  0  0  0  0  0  0  0  0  0  0
   29.7115  -11.6434    0.0000 C   0  0  0  0  0  0  0  0  0  0  0  0
   29.5006  -10.8489    0.0000 C   0  0  0  0  0  0  0  0  0  0  0  0
   30.0799  -10.2654    0.0000 C   0  0  0  0  0  0  0  0  0  0  0  0
   30.8786  -10.4805    0.0000 C   0  0  0  0  0  0  0  0  0  0  0  0
   31.0895  -11.2749    0.0000 C   0  0  0  0  0  0  0  0  0  0  0  0
   30.5059  -11.8584    0.0000 C   0  0  0  0  0  0  0  0  0  0  0  0
   23.2509  -11.5492    0.0000 S   0  0  0  0  0  0  0  0  0  0  0  0
   23.9160  -12.0337    0.0000 N   0  0  0  0  0  0  0  0  0  0  0  0
   24.5810  -11.5492    0.0000 C   0  0  0  0  0  0  0  0  0  0  0  0
   24.3282  -10.7651    0.0000 C   0  0  0  0  0  0  0  0  0  0  0  0
   23.5037  -10.7651    0.0000 C   0  0  0  0  0  0  0  0  0  0  0  0
   23.0915  -10.0497    0.0000 C   0  0  0  0  0  0  0  0  0  0  0  0
   23.5037   -9.3343    0.0000 C   0  0  0  0  0  0  0  0  0  0  0  0
   24.3282   -9.3343    0.0000 C   0  0  0  0  0  0  0  0  0  0  0  0
   24.7404  -10.0497    0.0000 C   0  0  0  0  0  0  0  0  0  0  0  0
  1  2  1  0  0  0  0
  2  3  1  0  0  0  0
  3  4  1  0  0  0  0
  4  5  1  0  0  0  0
  5  6  1  0  0  0  0
  1  6  1  0  0  0  0
  7  8  2  0  0  0  0
  7  9  1  0  0  0  0
  1  7  1  0  0  0  0
 10 11  1  0  0  0  0
 11 12  4  0  0  0  0
 12 13  4  0  0  0  0
 13 14  4  0  0  0  0
 14 15  4  0  0  0  0
 15 16  4  0  0  0  0
 11 16  4  0  0  0  0
  9 10  1  0  0  0  0
 17 18  4  0  0  0  0
 18 19  4  0  0  0  0
 19 20  4  0  0  0  0
 20 21  4  0  0  0  0
 17 21  4  0  0  0  0
 22 23  4  0  0  0  0
 23 24  4  0  0  0  0
 24 25  4  0  0  0  0
 20 25  4  0  0  0  0
 21 22  4  0  0  0  0
  4 19  1  0  0  0  0
M  END
> <From> 
www.bindingDB.org

> <BindingDB Reactant_set_id>
50254221

> <Ligand InChI>
InChI=1S/C19H20N4OS/c24-19(20-14-15-6-2-1-3-7-15)23-12-10-22(11-13-23)18-16-8-4-5-9-17(16)25-21-18/h1-9H,10-14H2,(H,20,24)

> <Ligand InChI Key>
PVQXZMBDKWLIKA-UHFFFAOYSA-N

> <BindingDB MonomerID>
50037202

> <BindingDB Ligand Name>
CHEMBL3355801

> <Target Name Assigned by Curator or DataSource>
DNA gyrase subunit B

> <Target Source Organism According to Curator or DataSource>


> <Ki (nM)>


> <IC50 (nM)>
 2360

> <Kd (nM)>


> <EC50 (nM)>


> <kon (M-1-s-1)>


> <koff (s-1)>


> <pH>


> <Temp C>


> <Curation/DataSource>
ChEMBL

> <Article DOI>
10.1016/j.bmc.2014.10.016

> <PMID>
25456076

> <PubChem AID>


> <Patent Number>


> <Authors>
Reddy, KI; Srihari, K; Renuka, J; Sree, KS; Chuppala, A; Jeankumar, VU; Sridevi, JP; Babu, KS; Yogeeswari, P; Sriram, D

> <Institution>
TBA

> <Link to Ligand in BindingDB>
http://www.bindingdb.org/bind/chemsearch/marvin/MolStructure.jsp?monomerid=50037202

> <Link to Ligand-Target Pair in BindingDB>
http://www.bindingdb.org/jsp/dbsearch/PrimarySearch_ki.jsp?energyterm=kJ/mole&tag=pol&polymerid=50006452&target=DNA+gyrase+subunit+B&column=ki&startPg=0&Increment=50&submit=Search

> <Link to Ligand-Target Pair in BindingDB>
http://www.bindingdb.org/jsp/dbsearch/PrimarySearch_ki.jsp?energyterm=kJ/mole&tag=r21&monomerid=50037202&enzyme=DNA+gyrase+subunit+B&column=ki&startPg=0&Increment=50&submit=Search

> <Ligand HET ID in PDB>


> <PDB ID(s) for Ligand-Target Complex>


> <PubChem CID>
118721099

> <PubChem SID>
313067079

> <ChEBI ID of Ligand>


> <ChEMBL ID of Ligand>


> <DrugBank ID of Ligand>


> <IUPHAR_GRAC ID of Ligand>


> <KEGG ID of Ligand>


> <ZINC ID of Ligand>


> <Number of Protein Chains in Target (>1 implies a multichain complex)>
1

> <BindingDB Target Chain Sequence>
MAAQKNNAPKEYGADSITILEGLEAVRKRPGMYIGSTGERGLHHLIWEVVDNAVDEAMAGFATRVDVKIHADGSVEVRDDGRGIPVEMHATGMPTIDVVMTQLHAGGKFDGETYAVSGGLHGVGVSVVNALSTRLEATVLRDGYEWFQYYDRSVPGKLKQGGETKETGTTIRFWADPEIFETTDYNFETVARRLQEMAFLNKGLTIELTDERVTAEEVVDDVVKDTAEAPKTADEKAAEATGPSKVKHRVFHYPGGLVDYVKHINRTKTPIQQSIIDFDGKGPGHEVEIAMQWNAGYSESVHTFANTINTHEGGTHEEGFRAALTSVVNRYAKDKKLLKDKDPNLTGDDIREGLAAVISVKVAEPQFEGQTKTKLGNTEVKSFVQKICNEQLQHWFEANPAEAKTVVNKAVSSAQARIAARKARELVRRKSATDIGGLPGKLADCRSTDPSKSELYVVEGDSAGGSAKSGRDSMFQAILPLRGKIINVEKARIDRVLKNTEVQSIITALGTGIHDEFDISKLRYHKIVLMADADVDGQHISTLLLTLLFRFMKPLVENGHIFLAQPPLYKLKWQRSEPEFAYSDRERDGLLEAGRAAGKKINVDDGIQRYKGLGEMDAKELWETTMDPSVRVLRQVTLDDAAAADELFSILMGEDVEARRSFITRNAKDVRFLDV

> <PDB ID(s) of Target Chain>
4BAE

> <UniProt (SwissProt) Recommended Name of Target Chain>
DNA gyrase subunit B

> <UniProt (SwissProt) Entry Name of Target Chain>
GYRB_MYCSM

> <UniProt (SwissProt) Primary ID of Target Chain>
P0C559

> <UniProt (SwissProt) Secondary ID(s) of Target Chain>
P48355,Q59555

> <UniProt (SwissProt) Alternative ID(s) of Target Chain>


> <UniProt (TrEMBL) Submitted Name of Target Chain>


> <UniProt (TrEMBL) Entry Name of Target Chain>


> <UniProt (TrEMBL) Primary ID of Target Chain>


> <UniProt (TrEMBL) Secondary ID(s) of Target Chain>


> <UniProt (TrEMBL) Alternative ID(s) of Target Chain>


$$$$

  Mrv0541 04171609262D          

 25 27  0  0  0  0            999 V2000
    0.7145   -0.4125    0.0000 C   0  0  0  0  0  0  0  0  0  0  0  0
    0.7145    0.4125    0.0000 C   0  0  0  0  0  0  0  0  0  0  0  0
    0.0000    0.8250    0.0000 C   0  0  0  0  0  0  0  0  0  0  0  0
   -0.7145    0.4125    0.0000 C   0  0  0  0  0  0  0  0  0  0  0  0
   -0.7145   -0.4125    0.0000 C   0  0  0  0  0  0  0  0  0  0  0  0
    0.0000   -0.8250    0.0000 C   0  0  0  0  0  0  0  0  0  0  0  0
   -1.4293   -0.8252    0.0000 C   0  0  0  0  0  0  0  0  0  0  0  0
   -2.1731   -0.4848    0.0000 S   0  0  0  0  0  0  0  0  0  0  0  0
   -2.7242   -1.0988    0.0000 C   0  0  0  0  0  0  0  0  0  0  0  0
   -2.3106   -1.8127    0.0000 C   0  0  0  0  0  0  0  0  0  0  0  0
   -1.5039   -1.6399    0.0000 C   0  0  0  0  0  0  0  0  0  0  0  0
   -2.6430   -2.5667    0.0000 C   0  0  0  0  0  0  0  0  0  0  0  0
   -2.2534   -3.0995    0.0000 O   0  0  0  0  0  0  0  0  0  0  0  0
   -3.2991   -2.6378    0.0000 N   0  0  0  0  0  0  0  0  0  0  0  0
   -3.5437   -1.0123    0.0000 N   0  0  0  0  0  0  0  0  0  0  0  0
   -3.8796   -0.2582    0.0000 C   0  0  0  0  0  0  0  0  0  0  0  0
   -4.7005   -0.1715    0.0000 N   0  0  0  0  0  0  0  0  0  0  0  0
   -3.4916    0.2757    0.0000 S   0  0  0  0  0  0  0  0  0  0  0  0
   -5.0363    0.5825    0.0000 C   0  0  0  0  0  0  0  0  0  0  0  0
   -5.8567    0.6704    0.0000 C   0  0  0  0  0  0  0  0  0  0  0  0
   -6.1908    1.4246    0.0000 C   0  0  0  0  0  0  0  0  0  0  0  0
   -5.7046    2.0912    0.0000 C   0  0  0  0  0  0  0  0  0  0  0  0
   -4.8843    2.0034    0.0000 C   0  0  0  0  0  0  0  0  0  0  0  0
   -4.5502    1.2491    0.0000 C   0  0  0  0  0  0  0  0  0  0  0  0
   -5.9719    2.6947    0.0000 C   0  0  0  0  0  0  0  0  0  0  0  0
  1  2  4  0  0  0  0
  2  3  4  0  0  0  0
  3  4  4  0  0  0  0
  4  5  4  0  0  0  0
  5  6  4  0  0  0  0
  6  1  4  0  0  0  0
  7  8  4  0  0  0  0
  8  9  4  0  0  0  0
  9 10  4  0  0  0  0
 10 11  4  0  0  0  0
 11  7  4  0  0  0  0
  5  7  1  0  0  0  0
 10 12  1  0  0  0  0
 12 13  2  0  0  0  0
 12 14  1  0  0  0  0
  9 15  1  0  0  0  0
 15 16  1  0  0  0  0
 16 17  1  0  0  0  0
 16 18  2  0  0  0  0
 17 19  1  0  0  0  0
 19 20  4  0  0  0  0
 20 21  4  0  0  0  0
 21 22  4  0  0  0  0
 22 23  4  0  0  0  0
 23 24  4  0  0  0  0
 24 19  4  0  0  0  0
 22 25  1  0  0  0  0
M  END
> <From> 
www.bindingDB.org

> <BindingDB Reactant_set_id>
50302331

> <Ligand InChI>
InChI=1S/C19H17N3OS2/c1-12-7-9-14(10-8-12)21-19(24)22-18-15(17(20)23)11-16(25-18)13-5-3-2-4-6-13/h2-11H,1H3,(H2,20,23)(H2,21,22,24)

> <Ligand InChI Key>
XDCCPDRGJRIYOM-UHFFFAOYSA-N

> <BindingDB MonomerID>
50066096

> <BindingDB Ligand Name>
CHEMBL3402942

> <Target Name Assigned by Curator or DataSource>
DNA gyrase subunit B

> <Target Source Organism According to Curator or DataSource>


> <Ki (nM)>


> <IC50 (nM)>
 2459

> <Kd (nM)>


> <EC50 (nM)>


> <kon (M-1-s-1)>


> <koff (s-1)>


> <pH>


> <Temp C>
25.00

> <Curation/DataSource>
ChEMBL

> <Article DOI>
10.1016/j.bmc.2015.02.032

> <PMID>
25766629

> <PubChem AID>


> <Patent Number>


> <Authors>
Saxena, S; Samala, G; Renuka, J; Sridevi, JP; Yogeeswari, P; Sriram, D

> <Institution>
Birla Institute of Technology&amp; Science-Pilani

> <Link to Ligand in BindingDB>
http://www.bindingdb.org/bind/chemsearch/marvin/MolStructure.jsp?monomerid=50066096

> <Link to Ligand-Target Pair in BindingDB>
http://www.bindingdb.org/jsp/dbsearch/PrimarySearch_ki.jsp?energyterm=kJ/mole&tag=pol&polymerid=50006452&target=DNA+gyrase+subunit+B&column=ki&startPg=0&Increment=50&submit=Search

> <Link to Ligand-Target Pair in BindingDB>
http://www.bindingdb.org/jsp/dbsearch/PrimarySearch_ki.jsp?energyterm=kJ/mole&tag=r21&monomerid=50066096&enzyme=DNA+gyrase+subunit+B&column=ki&startPg=0&Increment=50&submit=Search

> <Ligand HET ID in PDB>


> <PDB ID(s) for Ligand-Target Complex>


> <PubChem CID>
118729467

> <PubChem SID>
313071619

> <ChEBI ID of Ligand>


> <ChEMBL ID of Ligand>


> <DrugBank ID of Ligand>


> <IUPHAR_GRAC ID of Ligand>


> <KEGG ID of Ligand>


> <ZINC ID of Ligand>


> <Number of Protein Chains in Target (>1 implies a multichain complex)>
1

> <BindingDB Target Chain Sequence>
MAAQKNNAPKEYGADSITILEGLEAVRKRPGMYIGSTGERGLHHLIWEVVDNAVDEAMAGFATRVDVKIHADGSVEVRDDGRGIPVEMHATGMPTIDVVMTQLHAGGKFDGETYAVSGGLHGVGVSVVNALSTRLEATVLRDGYEWFQYYDRSVPGKLKQGGETKETGTTIRFWADPEIFETTDYNFETVARRLQEMAFLNKGLTIELTDERVTAEEVVDDVVKDTAEAPKTADEKAAEATGPSKVKHRVFHYPGGLVDYVKHINRTKTPIQQSIIDFDGKGPGHEVEIAMQWNAGYSESVHTFANTINTHEGGTHEEGFRAALTSVVNRYAKDKKLLKDKDPNLTGDDIREGLAAVISVKVAEPQFEGQTKTKLGNTEVKSFVQKICNEQLQHWFEANPAEAKTVVNKAVSSAQARIAARKARELVRRKSATDIGGLPGKLADCRSTDPSKSELYVVEGDSAGGSAKSGRDSMFQAILPLRGKIINVEKARIDRVLKNTEVQSIITALGTGIHDEFDISKLRYHKIVLMADADVDGQHISTLLLTLLFRFMKPLVENGHIFLAQPPLYKLKWQRSEPEFAYSDRERDGLLEAGRAAGKKINVDDGIQRYKGLGEMDAKELWETTMDPSVRVLRQVTLDDAAAADELFSILMGEDVEARRSFITRNAKDVRFLDV

> <PDB ID(s) of Target Chain>
4BAE

> <UniProt (SwissProt) Recommended Name of Target Chain>
DNA gyrase subunit B

> <UniProt (SwissProt) Entry Name of Target Chain>
GYRB_MYCSM

> <UniProt (SwissProt) Primary ID of Target Chain>
P0C559

> <UniProt (SwissProt) Secondary ID(s) of Target Chain>
P48355,Q59555

> <UniProt (SwissProt) Alternative ID(s) of Target Chain>


> <UniProt (TrEMBL) Submitted Name of Target Chain>


> <UniProt (TrEMBL) Entry Name of Target Chain>


> <UniProt (TrEMBL) Primary ID of Target Chain>


> <UniProt (TrEMBL) Secondary ID(s) of Target Chain>


> <UniProt (TrEMBL) Alternative ID(s) of Target Chain>


$$$$

  Mrv0541 04171609262D          

 32 35  0  0  0  0            999 V2000
   -1.4361    0.4117    0.0000 C   0  0  0  0  0  0  0  0  0  0  0  0
   -1.4361   -0.4117    0.0000 C   0  0  0  0  0  0  0  0  0  0  0  0
   -0.7130   -0.8235    0.0000 C   0  0  0  0  0  0  0  0  0  0  0  0
   -0.7130    0.8235    0.0000 C   0  0  0  0  0  0  0  0  0  0  0  0
    0.0000    0.4117    0.0000 C   0  0  0  0  0  0  0  0  0  0  0  0
    0.0000   -0.4117    0.0000 C   0  0  0  0  0  0  0  0  0  0  0  0
    0.7130   -0.8235    0.0000 N   0  0  0  0  0  0  0  0  0  0  0  0
    1.4261   -0.4117    0.0000 C   0  0  0  0  0  0  0  0  0  0  0  0
    1.4261    0.4117    0.0000 C   0  0  0  0  0  0  0  0  0  0  0  0
    0.7130    0.8235    0.0000 C   0  0  0  0  0  0  0  0  0  0  0  0
    0.7130    1.6489    0.0000 N   0  0  0  0  0  0  0  0  0  0  0  0
   -0.0008    2.0627    0.0000 C   0  0  0  0  0  0  0  0  0  0  0  0
    0.0006    2.8877    0.0000 C   0  0  0  0  0  0  0  0  0  0  0  0
    0.7158    3.2990    0.0000 C   0  0  0  0  0  0  0  0  0  0  0  0
    1.4296    2.8853    0.0000 C   0  0  0  0  0  0  0  0  0  0  0  0
    1.4282    2.0603    0.0000 C   0  0  0  0  0  0  0  0  0  0  0  0
    0.7188    4.1245    0.0000 N   0  0  0  0  0  0  0  0  0  0  0  0
    1.4350    4.5350    0.0000 C   0  0  0  0  0  0  0  0  0  0  0  0
    2.0054    4.2031    0.0000 S   0  0  0  0  0  0  0  0  0  0  0  0
    1.4380    5.3604    0.0000 N   0  0  0  0  0  0  0  0  0  0  0  0
    2.1541    5.7709    0.0000 C   0  0  0  0  0  0  0  0  0  0  0  0
    2.1584    6.5960    0.0000 C   0  0  0  0  0  0  0  0  0  0  0  0
    2.8750    7.0048    0.0000 C   0  0  0  0  0  0  0  0  0  0  0  0
    3.5873    6.5887    0.0000 C   0  0  0  0  0  0  0  0  0  0  0  0
    3.5831    5.7637    0.0000 C   0  0  0  0  0  0  0  0  0  0  0  0
    2.8666    5.3548    0.0000 C   0  0  0  0  0  0  0  0  0  0  0  0
    1.9977   -0.7417    0.0000 C   0  0  0  0  0  0  0  0  0  0  0  0
    4.3051    6.9962    0.0000 N   0  3  0  0  0  0  0  0  0  0  0  0
   -2.1500    0.8260    0.0000 O   0  0  0  0  0  0  0  0  0  0  0  0
   -2.1490    1.4860    0.0000 C   0  0  0  0  0  0  0  0  0  0  0  0
    4.8746    6.6626    0.0000 O   0  0  0  0  0  0  0  0  0  0  0  0
    4.3096    7.6562    0.0000 O   0  5  0  0  0  0  0  0  0  0  0  0
  1  2  4  0  0  0  0
  2  3  4  0  0  0  0
  3  6  4  0  0  0  0
  5  4  4  0  0  0  0
  4  1  4  0  0  0  0
  5  6  4  0  0  0  0
  6  7  4  0  0  0  0
  7  8  4  0  0  0  0
  8  9  4  0  0  0  0
  9 10  4  0  0  0  0
 10  5  4  0  0  0  0
 11 12  1  0  0  0  0
 11 16  1  0  0  0  0
 12 13  1  0  0  0  0
 13 14  1  0  0  0  0
 14 15  1  0  0  0  0
 15 16  1  0  0  0  0
 10 11  1  0  0  0  0
 14 17  1  0  0  0  0
 17 18  1  0  0  0  0
 18 19  2  0  0  0  0
 18 20  1  0  0  0  0
 20 21  1  0  0  0  0
 21 22  4  0  0  0  0
 22 23  4  0  0  0  0
 23 24  4  0  0  0  0
 24 25  4  0  0  0  0
 25 26  4  0  0  0  0
 26 21  4  0  0  0  0
  8 27  1  0  0  0  0
 24 28  1  0  0  0  0
  1 29  1  0  0  0  0
 29 30  1  0  0  0  0
 28 31  2  0  0  0  0
 28 32  1  0  0  0  0
M  CHG  2  28   1  32  -1
M  END
> <From> 
www.bindingDB.org

> <BindingDB Reactant_set_id>
50303834

> <Ligand InChI>
InChI=1S/C23H25N5O3S/c1-15-13-22(20-14-19(31-2)7-8-21(20)24-15)27-11-9-17(10-12-27)26-23(32)25-16-3-5-18(6-4-16)28(29)30/h3-8,13-14,17H,9-12H2,1-2H3,(H2,25,26,32)

> <Ligand InChI Key>
ROUDTSLYGYFSMR-UHFFFAOYSA-N

> <BindingDB MonomerID>
50067154

> <BindingDB Ligand Name>
CHEMBL3403275

> <Target Name Assigned by Curator or DataSource>
DNA gyrase subunit B

> <Target Source Organism According to Curator or DataSource>


> <Ki (nM)>


> <IC50 (nM)>
 2500

> <Kd (nM)>


> <EC50 (nM)>


> <kon (M-1-s-1)>


> <koff (s-1)>


> <pH>


> <Temp C>


> <Curation/DataSource>
ChEMBL

> <Article DOI>
10.1016/j.bmc.2015.03.004

> <PMID>
25801151

> <PubChem AID>


> <Patent Number>


> <Authors>
Medapi, B; Renuka, J; Saxena, S; Sridevi, JP; Medishetti, R; Kulkarni, P; Yogeeswari, P; Sriram, D

> <Institution>
Birla Institute of Technology&amp; Science-Pilani

> <Link to Ligand in BindingDB>
http://www.bindingdb.org/bind/chemsearch/marvin/MolStructure.jsp?monomerid=50067154

> <Link to Ligand-Target Pair in BindingDB>
http://www.bindingdb.org/jsp/dbsearch/PrimarySearch_ki.jsp?energyterm=kJ/mole&tag=pol&polymerid=50006452&target=DNA+gyrase+subunit+B&column=ki&startPg=0&Increment=50&submit=Search

> <Link to Ligand-Target Pair in BindingDB>
http://www.bindingdb.org/jsp/dbsearch/PrimarySearch_ki.jsp?energyterm=kJ/mole&tag=r21&monomerid=50067154&enzyme=DNA+gyrase+subunit+B&column=ki&startPg=0&Increment=50&submit=Search

> <Ligand HET ID in PDB>


> <PDB ID(s) for Ligand-Target Complex>


> <PubChem CID>
118729691

> <PubChem SID>
313071785

> <ChEBI ID of Ligand>


> <ChEMBL ID of Ligand>


> <DrugBank ID of Ligand>


> <IUPHAR_GRAC ID of Ligand>


> <KEGG ID of Ligand>


> <ZINC ID of Ligand>


> <Number of Protein Chains in Target (>1 implies a multichain complex)>
1

> <BindingDB Target Chain Sequence>
MAAQKNNAPKEYGADSITILEGLEAVRKRPGMYIGSTGERGLHHLIWEVVDNAVDEAMAGFATRVDVKIHADGSVEVRDDGRGIPVEMHATGMPTIDVVMTQLHAGGKFDGETYAVSGGLHGVGVSVVNALSTRLEATVLRDGYEWFQYYDRSVPGKLKQGGETKETGTTIRFWADPEIFETTDYNFETVARRLQEMAFLNKGLTIELTDERVTAEEVVDDVVKDTAEAPKTADEKAAEATGPSKVKHRVFHYPGGLVDYVKHINRTKTPIQQSIIDFDGKGPGHEVEIAMQWNAGYSESVHTFANTINTHEGGTHEEGFRAALTSVVNRYAKDKKLLKDKDPNLTGDDIREGLAAVISVKVAEPQFEGQTKTKLGNTEVKSFVQKICNEQLQHWFEANPAEAKTVVNKAVSSAQARIAARKARELVRRKSATDIGGLPGKLADCRSTDPSKSELYVVEGDSAGGSAKSGRDSMFQAILPLRGKIINVEKARIDRVLKNTEVQSIITALGTGIHDEFDISKLRYHKIVLMADADVDGQHISTLLLTLLFRFMKPLVENGHIFLAQPPLYKLKWQRSEPEFAYSDRERDGLLEAGRAAGKKINVDDGIQRYKGLGEMDAKELWETTMDPSVRVLRQVTLDDAAAADELFSILMGEDVEARRSFITRNAKDVRFLDV

> <PDB ID(s) of Target Chain>
4BAE

> <UniProt (SwissProt) Recommended Name of Target Chain>
DNA gyrase subunit B

> <UniProt (SwissProt) Entry Name of Target Chain>
GYRB_MYCSM

> <UniProt (SwissProt) Primary ID of Target Chain>
P0C559

> <UniProt (SwissProt) Secondary ID(s) of Target Chain>
P48355,Q59555

> <UniProt (SwissProt) Alternative ID(s) of Target Chain>


> <UniProt (TrEMBL) Submitted Name of Target Chain>


> <UniProt (TrEMBL) Entry Name of Target Chain>


> <UniProt (TrEMBL) Primary ID of Target Chain>


> <UniProt (TrEMBL) Secondary ID(s) of Target Chain>


> <UniProt (TrEMBL) Alternative ID(s) of Target Chain>


$$$$

  SciTegic12221707142D

 27 30  0  0  0  0            999 V2000
    7.5048   -4.7086    0.0000 N   0  0
    6.7914   -5.1064    0.0000 C   0  0
    6.7785   -5.9235    0.0000 C   0  0
    7.4831   -6.3427    0.0000 N   0  0
    8.1965   -5.9448    0.0000 C   0  0
    8.2053   -5.1277    0.0000 C   0  0
    7.5137   -3.8915    0.0000 C   0  0
    8.2270   -3.4936    0.0000 N   0  0
    6.8132   -3.4723    0.0000 S   0  0
    8.2400   -2.6765    0.0000 C   0  0
    8.9534   -2.2745    0.0000 C   0  0
    8.9663   -1.4574    0.0000 C   0  0
    8.2617   -1.0424    0.0000 C   0  0
    7.5483   -1.4403    0.0000 C   0  0
    7.5395   -2.2573    0.0000 C   0  0
    7.4484   -8.7939    0.0000 N   0  0
    8.1618   -8.3960    0.0000 C   0  0
    8.1706   -7.5790    0.0000 C   0  0
    7.4701   -7.1598    0.0000 C   0  0
    6.7568   -7.5577    0.0000 C   0  0
    6.0563   -7.1385    0.0000 C   0  0
    5.3429   -7.5364    0.0000 C   0  0
    5.3300   -8.3576    0.0000 C   0  0
    6.0304   -8.7726    0.0000 C   0  0
    6.7479   -8.3747    0.0000 C   0  0
    4.6166   -8.7554    0.0000 Cl  0  0
    8.2714   -0.2252    0.0000 F   0  0
  1  2  1  0
  2  3  1  0
  3  4  1  0
  4  5  1  0
  5  6  1  0
  1  6  1  0
  7  8  1  0
  7  9  2  0
  1  7  1  0
 10 11  1  0
 11 12  2  0
 12 13  1  0
 13 14  2  0
 14 15  1  0
 10 15  2  0
  8 10  1  0
 16 17  2  0
 17 18  1  0
 18 19  2  0
 19 20  1  0
 20 21  2  0
 21 22  1  0
 22 23  2  0
 23 24  1  0
 24 25  2  0
 16 25  1  0
 20 25  1  0
 23 26  1  0
  4 19  1  0
 13 27  1  0
M  END
> <From> 
www.bindingDB.org

> <BindingDB Reactant_set_id>
50528067

> <Ligand InChI>
InChI=1S/C20H18ClFN4S/c21-14-1-6-17-18(13-14)23-8-7-19(17)25-9-11-26(12-10-25)20(27)24-16-4-2-15(22)3-5-16/h1-8,13H,9-12H2,(H,24,27)

> <Ligand InChI Key>
YXNYQBSJQVMSRD-UHFFFAOYSA-N

> <BindingDB MonomerID>
50202058

> <BindingDB Ligand Name>
CHEMBL3949206

> <Target Name Assigned by Curator or DataSource>
DNA gyrase subunit B

> <Target Source Organism According to Curator or DataSource>


> <Ki (nM)>


> <IC50 (nM)>
 2500

> <Kd (nM)>


> <EC50 (nM)>


> <kon (M-1-s-1)>


> <koff (s-1)>


> <pH>


> <Temp C>


> <Curation/DataSource>
ChEMBL

> <Article DOI>
10.1016/j.ejmech.2016.06.042

> <PMID>
27371925

> <PubChem AID>


> <Patent Number>


> <Authors>
Jeankumar, VU; Reshma, RS; Vats, R; Janupally, R; Saxena, S; Yogeeswari, P; Sriram, D

> <Institution>
Birla Institute of Technology&amp; Science-Pilani

> <Link to Ligand in BindingDB>
http://www.bindingdb.org/bind/chemsearch/marvin/MolStructure.jsp?monomerid=50202058

> <Link to Ligand-Target Pair in BindingDB>
http://www.bindingdb.org/jsp/dbsearch/PrimarySearch_ki.jsp?energyterm=kJ/mole&tag=pol&polymerid=50006452&target=DNA+gyrase+subunit+B&column=ki&startPg=0&Increment=50&submit=Search

> <Link to Ligand-Target Pair in BindingDB>
http://www.bindingdb.org/jsp/dbsearch/PrimarySearch_ki.jsp?energyterm=kJ/mole&tag=r21&monomerid=50202058&enzyme=DNA+gyrase+subunit+B&column=ki&startPg=0&Increment=50&submit=Search

> <Ligand HET ID in PDB>


> <PDB ID(s) for Ligand-Target Complex>


> <PubChem CID>
86591805

> <PubChem SID>
104081687

> <ChEBI ID of Ligand>


> <ChEMBL ID of Ligand>
CHEMBL219036

> <DrugBank ID of Ligand>


> <IUPHAR_GRAC ID of Ligand>


> <KEGG ID of Ligand>


> <ZINC ID of Ligand>
ZINC36351417

> <Number of Protein Chains in Target (>1 implies a multichain complex)>
1

> <BindingDB Target Chain Sequence>
MAAQKNNAPKEYGADSITILEGLEAVRKRPGMYIGSTGERGLHHLIWEVVDNAVDEAMAGFATRVDVKIHADGSVEVRDDGRGIPVEMHATGMPTIDVVMTQLHAGGKFDGETYAVSGGLHGVGVSVVNALSTRLEATVLRDGYEWFQYYDRSVPGKLKQGGETKETGTTIRFWADPEIFETTDYNFETVARRLQEMAFLNKGLTIELTDERVTAEEVVDDVVKDTAEAPKTADEKAAEATGPSKVKHRVFHYPGGLVDYVKHINRTKTPIQQSIIDFDGKGPGHEVEIAMQWNAGYSESVHTFANTINTHEGGTHEEGFRAALTSVVNRYAKDKKLLKDKDPNLTGDDIREGLAAVISVKVAEPQFEGQTKTKLGNTEVKSFVQKICNEQLQHWFEANPAEAKTVVNKAVSSAQARIAARKARELVRRKSATDIGGLPGKLADCRSTDPSKSELYVVEGDSAGGSAKSGRDSMFQAILPLRGKIINVEKARIDRVLKNTEVQSIITALGTGIHDEFDISKLRYHKIVLMADADVDGQHISTLLLTLLFRFMKPLVENGHIFLAQPPLYKLKWQRSEPEFAYSDRERDGLLEAGRAAGKKINVDDGIQRYKGLGEMDAKELWETTMDPSVRVLRQVTLDDAAAADELFSILMGEDVEARRSFITRNAKDVRFLDV

> <PDB ID(s) of Target Chain>
4BAE

> <UniProt (SwissProt) Recommended Name of Target Chain>
DNA gyrase subunit B

> <UniProt (SwissProt) Entry Name of Target Chain>
GYRB_MYCSM

> <UniProt (SwissProt) Primary ID of Target Chain>
P0C559

> <UniProt (SwissProt) Secondary ID(s) of Target Chain>
P48355,Q59555

> <UniProt (SwissProt) Alternative ID(s) of Target Chain>


> <UniProt (TrEMBL) Submitted Name of Target Chain>


> <UniProt (TrEMBL) Entry Name of Target Chain>


> <UniProt (TrEMBL) Primary ID of Target Chain>


> <UniProt (TrEMBL) Secondary ID(s) of Target Chain>


> <UniProt (TrEMBL) Alternative ID(s) of Target Chain>


$$$$

  SciTegic09261414462D

 18 19  0  0  0  0            999 V2000
   23.2142  -10.2520    0.0000 C   0  0
   23.2131  -11.0715    0.0000 C   0  0
   23.9211  -11.4805    0.0000 C   0  0
   24.6308  -11.0711    0.0000 C   0  0
   24.6280  -10.2484    0.0000 C   0  0
   23.9194   -9.8431    0.0000 N   0  0
   22.5064   -9.8436    0.0000 N   0  0
   21.7988  -10.2523    0.0000 C   0  0
   21.0910   -9.8439    0.0000 N   0  0
   21.7990  -11.0695    0.0000 O   0  0
   20.3834  -10.2527    0.0000 C   0  0
   19.6756   -9.8442    0.0000 C   0  0
   25.3356  -11.4778    0.0000 C   0  0
   25.3356  -12.2961    0.0000 C   0  0
   26.0431  -12.7035    0.0000 C   0  0
   26.7511  -12.2937    0.0000 C   0  0
   26.7472  -11.4723    0.0000 N   0  0
   26.0391  -11.0686    0.0000 C   0  0
  1  2  2  0
  2  3  1  0
  3  4  2  0
  4  5  1  0
  5  6  2  0
  6  1  1  0
  1  7  1  0
  7  8  1  0
  8  9  1  0
  8 10  2  0
  9 11  1  0
 11 12  1  0
 13 14  2  0
 14 15  1  0
 15 16  2  0
 16 17  1  0
 17 18  2  0
 18 13  1  0
  4 13  1  0
M  END
> <From> 
www.bindingDB.org

> <BindingDB Reactant_set_id>
50083254

> <Ligand InChI>
InChI=1S/C13H14N4O/c1-2-15-13(18)17-12-6-5-11(9-16-12)10-4-3-7-14-8-10/h3-9H,2H2,1H3,(H2,15,16,17,18)

> <Ligand InChI Key>
KUPXSOYALVFUHF-UHFFFAOYSA-N

> <BindingDB MonomerID>
50006547

> <BindingDB Ligand Name>
CHEMBL3235070

> <Target Name Assigned by Curator or DataSource>
DNA Gyrase Subunit B

> <Target Source Organism According to Curator or DataSource>
Staphylococcus aureus

> <Ki (nM)>


> <IC50 (nM)>
 2700

> <Kd (nM)>


> <EC50 (nM)>


> <kon (M-1-s-1)>


> <koff (s-1)>


> <pH>


> <Temp C>


> <Curation/DataSource>
ChEMBL

> <Article DOI>
10.1021/jm401208b

> <PMID>
24098982

> <PubChem AID>


> <Patent Number>


> <Authors>
Basarab, GS; Basarab, GS; Boriack-Sjodin, PA; Boriack-Sjodin, PA; Illingworth, R; Illingworth, R; Manchester, JI; Manchester, JI; Dangel, B; Dangel, B; Sriram, S; Sriram, S

> <Institution>
AstraZeneca R&amp;D Boston

> <Link to Ligand in BindingDB>
http://www.bindingdb.org/bind/chemsearch/marvin/MolStructure.jsp?monomerid=50006547

> <Link to Ligand-Target Pair in BindingDB>
http://www.bindingdb.org/jsp/dbsearch/PrimarySearch_ki.jsp?energyterm=kJ/mole&tag=pol&polymerid=2626&target=DNA+Gyrase+Subunit+B&column=ki&startPg=0&Increment=50&submit=Search

> <Link to Ligand-Target Pair in BindingDB>
http://www.bindingdb.org/jsp/dbsearch/PrimarySearch_ki.jsp?energyterm=kJ/mole&tag=r21&monomerid=50006547&enzyme=DNA+Gyrase+Subunit+B&column=ki&startPg=0&Increment=50&submit=Search

> <Ligand HET ID in PDB>


> <PDB ID(s) for Ligand-Target Complex>


> <PubChem CID>
72712074

> <PubChem SID>
103919948

> <ChEBI ID of Ligand>


> <ChEMBL ID of Ligand>
CHEMBL3235070

> <DrugBank ID of Ligand>


> <IUPHAR_GRAC ID of Ligand>


> <KEGG ID of Ligand>


> <ZINC ID of Ligand>
ZINC36289000

> <Number of Protein Chains in Target (>1 implies a multichain complex)>
1

> <BindingDB Target Chain Sequence>
MVTALSDVNNTDNYGAGQIQVLEGLEAVRKRPGMYIGSTSERGLHHLVWEIVDNSIDEALAGYANQIEVVIEKDNWIKVTDNGRGIPVDIQEKMGRPAVEVILTVLHAGGKFGGGGYKVSGGLHGVGSSVVNALSQDLEVYVHRNETIYHQAYKKGVPQFDLKEVGTTDKTGTVIRFKADGEIFTETTVYNYETLQQRIRELAFLNKGIQITLRDERDEENVREDSYHYEGGIKSYVELLNENKEPIHDEPIYIHQSKDDIEVEIAIQYNSGYATNLLTYANNIHTYEGGTHEDGFKRALTRVLNSYGLSSKIMKEEKDRLSGEDTREGMTAIISIKHGDPQFEGQTKTKLGNSEVRQVVDKLFSEHFERFLYENPQVARTVVEKGIMAARARVAAKKAREVTRRKSALDVASLPGKLADCSSKSPEECEIFLVEGDSAGGSTKSGRDSRTQAILPLRGKILNVEKARLDRILNNNEIRQMITAFGTGIGGDFDLAKARYHKIVIMTDADVDGAHIRTLLLTFFYRFMRPLIEAGYVYIAQPPLYKLTQGKQKYYVYNDRELDKLKSELNPTPKWSIARYKGLGEMNADQLWETTMNPEHRALLQVKLEDAIEADQTFEMLMGDVVENRRQFIEDNAVYANLDF

> <PDB ID(s) of Target Chain>


> <UniProt (SwissProt) Recommended Name of Target Chain>
DNA gyrase subunit B

> <UniProt (SwissProt) Entry Name of Target Chain>
GYRB_STAAU

> <UniProt (SwissProt) Primary ID of Target Chain>
P0A0K8

> <UniProt (SwissProt) Secondary ID(s) of Target Chain>
P20832

> <UniProt (SwissProt) Alternative ID(s) of Target Chain>


> <UniProt (TrEMBL) Submitted Name of Target Chain>


> <UniProt (TrEMBL) Entry Name of Target Chain>


> <UniProt (TrEMBL) Primary ID of Target Chain>


> <UniProt (TrEMBL) Secondary ID(s) of Target Chain>


> <UniProt (TrEMBL) Alternative ID(s) of Target Chain>


$$$$

  Mrv0541 11231413392D          

 47 51  0  0  0  0            999 V2000
   -0.1752  -17.7043    0.0000 C   0  0  0  0  0  0  0  0  0  0  0  0
   -0.9011  -17.3027    0.0000 C   0  0  1  0  0  0  0  0  0  0  0  0
   -1.6078  -17.7283    0.0000 C   0  0  2  0  0  0  0  0  0  0  0  0
   -1.5949  -18.5571    0.0000 C   0  0  2  0  0  0  0  0  0  0  0  0
   -0.8691  -18.9586    0.0000 C   0  0  1  0  0  0  0  0  0  0  0  0
   -0.1561  -18.5314    0.0000 O   0  0  0  0  0  0  0  0  0  0  0  0
   -0.8548  -19.7835    0.0000 O   0  0  0  0  0  0  0  0  0  0  0  0
   -0.1351  -20.1947    0.0000 C   0  0  0  0  0  0  0  0  0  0  0  0
   -0.1357  -21.0193    0.0000 C   0  0  0  0  0  0  0  0  0  0  0  0
    0.5798  -19.7805    0.0000 C   0  0  0  0  0  0  0  0  0  0  0  0
    1.2943  -20.1983    0.0000 C   0  0  0  0  0  0  0  0  0  0  0  0
    1.2924  -21.0229    0.0000 C   0  0  0  0  0  0  0  0  0  0  0  0
    0.5771  -21.4344    0.0000 C   0  0  0  0  0  0  0  0  0  0  0  0
    0.5759  -22.2551    0.0000 O   0  0  0  0  0  0  0  0  0  0  0  0
    1.2883  -22.6704    0.0000 C   0  0  0  0  0  0  0  0  0  0  0  0
    2.0036  -22.2589    0.0000 C   0  0  0  0  0  0  0  0  0  0  0  0
    2.0064  -21.4320    0.0000 C   0  0  0  0  0  0  0  0  0  0  0  0
    2.7210  -21.0196    0.0000 O   0  0  0  0  0  0  0  0  0  0  0  0
    1.2860  -23.4954    0.0000 O   0  0  0  0  0  0  0  0  0  0  0  0
    2.7170  -22.6732    0.0000 N   0  0  0  0  0  0  0  0  0  0  0  0
    2.7149  -23.4981    0.0000 C   0  0  0  0  0  0  0  0  0  0  0  0
    1.9994  -23.9087    0.0000 O   0  0  0  0  0  0  0  0  0  0  0  0
    3.4283  -23.9124    0.0000 C   0  0  0  0  0  0  0  0  0  0  0  0
    3.4234  -24.7365    0.0000 C   0  0  0  0  0  0  0  0  0  0  0  0
    4.1359  -25.1507    0.0000 C   0  0  0  0  0  0  0  0  0  0  0  0
    4.8523  -24.7400    0.0000 C   0  0  0  0  0  0  0  0  0  0  0  0
    4.8518  -23.9107    0.0000 C   0  0  0  0  0  0  0  0  0  0  0  0
    4.1387  -23.5002    0.0000 C   0  0  0  0  0  0  0  0  0  0  0  0
    5.5663  -25.1532    0.0000 O   0  0  0  0  0  0  0  0  0  0  0  0
    5.5659  -23.4975    0.0000 C   0  0  0  0  0  0  0  0  0  0  0  0
    0.6523  -17.6854    0.0000 C   0  0  0  0  0  0  0  0  0  0  0  0
   -0.1860  -16.8812    0.0000 C   0  0  0  0  0  0  0  0  0  0  0  0
   -0.9162  -16.4780    0.0000 O   0  0  0  0  0  0  0  0  0  0  0  0
   -0.2094  -16.0524    0.0000 C   0  0  0  0  0  0  0  0  0  0  0  0
   -2.3292  -17.3279    0.0000 O   0  0  0  0  0  0  0  0  0  0  0  0
   -2.3023  -18.9817    0.0000 O   0  0  0  0  0  0  0  0  0  0  0  0
   -0.8511  -21.4301    0.0000 C   0  0  0  0  0  0  0  0  0  0  0  0
    6.2807  -23.9093    0.0000 C   0  0  0  0  0  0  0  0  0  0  0  0
    6.9947  -23.4960    0.0000 C   0  0  0  0  0  0  0  0  0  0  0  0
   -3.0237  -18.5813    0.0000 C   0  0  0  0  0  0  0  0  0  0  0  0
   -3.7321  -19.0069    0.0000 C   0  0  0  0  0  0  0  0  0  0  0  0
   -3.0376  -17.7565    0.0000 O   0  0  0  0  0  0  0  0  0  0  0  0
   -4.3767  -18.4989    0.0000 N   0  0  0  0  0  0  0  0  0  0  0  0
   -5.0623  -18.9578    0.0000 C   0  0  0  0  0  0  0  0  0  0  0  0
   -4.8378  -19.7517    0.0000 C   0  0  0  0  0  0  0  0  0  0  0  0
   -4.0134  -19.7834    0.0000 C   0  0  0  0  0  0  0  0  0  0  0  0
   -5.7794  -18.5434    0.0000 C   0  0  0  0  0  0  0  0  0  0  0  0
 11 10  1  0  0  0  0
 21 23  1  0  0  0  0
 11 12  2  0  0  0  0
 23 24  2  0  0  0  0
  3  4  1  0  0  0  0
 24 25  1  0  0  0  0
 12 13  1  0  0  0  0
 25 26  2  0  0  0  0
  4  5  1  0  0  0  0
 26 27  1  0  0  0  0
  5  6  1  0  0  0  0
 27 28  2  0  0  0  0
 28 23  1  0  0  0  0
 26 29  1  0  0  0  0
  5  7  1  1  0  0  0
 27 30  1  0  0  0  0
  2  1  1  0  0  0  0
  1 31  1  0  0  0  0
  7  8  1  0  0  0  0
  1 32  1  0  0  0  0
 12 17  1  0  0  0  0
  2 33  1  1  0  0  0
 13 14  1  0  0  0  0
 33 34  1  0  0  0  0
 14 15  1  0  0  0  0
  3 35  1  6  0  0  0
 15 16  1  0  0  0  0
  4 36  1  6  0  0  0
 16 17  2  0  0  0  0
  9 37  1  0  0  0  0
  8  9  1  0  0  0  0
 30 38  1  0  0  0  0
 17 18  1  0  0  0  0
 38 39  2  0  0  0  0
  1  6  1  0  0  0  0
 36 40  1  0  0  0  0
 15 19  2  0  0  0  0
 40 41  1  0  0  0  0
  3  2  1  0  0  0  0
 40 42  2  0  0  0  0
 41 43  1  0  0  0  0
 16 20  1  0  0  0  0
  8 10  2  0  0  0  0
 20 21  1  0  0  0  0
  9 13  2  0  0  0  0
 43 44  1  0  0  0  0
 44 45  2  0  0  0  0
 45 46  1  0  0  0  0
 46 41  2  0  0  0  0
 21 22  2  0  0  0  0
 44 47  1  0  0  0  0
M  END
> <From> 
www.bindingDB.org

> <BindingDB Reactant_set_id>
50607663

> <Ligand InChI>
InChI=1S/C34H36N2O11/c1-7-8-18-15-19(10-13-22(18)37)30(40)36-24-25(38)20-11-14-23(17(3)27(20)45-32(24)42)44-33-28(26(39)29(43-6)34(4,5)47-33)46-31(41)21-12-9-16(2)35-21/h7,9-15,26,28-29,33,35,37-39H,1,8H2,2-6H3,(H,36,40)/t26-,28+,29+,33+/m0/s1

> <Ligand InChI Key>
UGFUKEQRKJXIPK-DBPUXHPHSA-N

> <BindingDB MonomerID>
50330292

> <BindingDB Ligand Name>
(2R,3R,4R,5R)-2-(3-(3-allyl-4-hydroxybenzamido)-4-hydroxy-8-methyl-2-oxo-2H-chromen-7-yloxy)-4-hydroxy-5-methoxy-6,6-dimethyltetrahydro-2H-pyran-3-yl 5-methyl-1H-pyrrole-2-carboxylate::CHEMBL1275900

> <Target Name Assigned by Curator or DataSource>
DNA Gyrase Subunit B

> <Target Source Organism According to Curator or DataSource>
Escherichia coli

> <Ki (nM)>


> <IC50 (nM)>
 2787

> <Kd (nM)>


> <EC50 (nM)>


> <kon (M-1-s-1)>


> <koff (s-1)>


> <pH>


> <Temp C>


> <Curation/DataSource>
ChEMBL

> <Article DOI>
10.1128/AAC.01235-07

> <PMID>
18347114

> <PubChem AID>


> <Patent Number>


> <Authors>
Anderle, C; Stieger, M; Burrell, M; Reinelt, S; Maxwell, A; Page, M; Heide, L

> <Institution>
Universit&#228;t T&#252;bingen

> <Link to Ligand in BindingDB>
http://www.bindingdb.org/bind/chemsearch/marvin/MolStructure.jsp?monomerid=50330292

> <Link to Ligand-Target Pair in BindingDB>
http://www.bindingdb.org/jsp/dbsearch/PrimarySearch_ki.jsp?energyterm=kJ/mole&tag=pol&polymerid=2630&target=DNA+Gyrase+Subunit+B&column=ki&startPg=0&Increment=50&submit=Search

> <Link to Ligand-Target Pair in BindingDB>
http://www.bindingdb.org/jsp/dbsearch/PrimarySearch_ki.jsp?energyterm=kJ/mole&tag=r21&monomerid=50330292&enzyme=DNA+Gyrase+Subunit+B&column=ki&startPg=0&Increment=50&submit=Search

> <Ligand HET ID in PDB>


> <PDB ID(s) for Ligand-Target Complex>


> <PubChem CID>
54732403

> <PubChem SID>
123109407

> <ChEBI ID of Ligand>


> <ChEMBL ID of Ligand>
CHEMBL1275900

> <DrugBank ID of Ligand>


> <IUPHAR_GRAC ID of Ligand>


> <KEGG ID of Ligand>


> <ZINC ID of Ligand>
ZINC72138095

> <Number of Protein Chains in Target (>1 implies a multichain complex)>
1

> <BindingDB Target Chain Sequence>
MSNSYDSSSIKVLKGLDAVRKRPGMYIGDTDDGTGLHHMVFEVVDNAIDEALAGHCKEII
VTIHADNSVSVQDDGRGIPTGIHPEEGVSAAEVIMTVLHAGGKFDDNSYKVSGGLHGVGV
SVVNALSQKLELVIQREGKIHRQIYEHGVPQAPLAVTGETEKTGTMVRFWPSLETFTNVT
EFEYEILAKRLRELSFLNSGVSIRLRDKRDGKEDHFHYEGGIKAFVEYLNKNKTPIHPNI
FYFSTEKDGIGVEVALQWNDGFQENIYCFTNNIPQRDGGTHLAGFRAAMTRTLNAYMDKE
GYSKKAKVSATGDDAREGLIAVVSVKVPDPKFSSQTKDKLVSSEVKSAVEQQMNELLAEY
LLENPTDAKIVVGKIIDAARAREAARRAREMTRRKGALDLAGLPGKLADCQERDPALSEL
YLVEGDSAGGSAKQGRNRKNQAILPLKGKILNVEKARFDKMLSSQEVATLITALGCGIGR
DEYNPDKLRYHSIIIMTDADVDGSHIRTLLLTFFYRQMPEIVERGHVYIAQPPLYKVKKG
KQEQYIKDDEAMDQYQISIALDGATLHTNASAPALAGEALEKLVSEYNATQKMINRMERR
YPKAMLKELIYQPTLTEADLSDEQTVTRWVNALVSELNDKEQHGSQWKFDVHTNAEQNLF
EPIVRVRTHGVDTDYPLDHEFITGGEYRRICTLGEKLRGLLEEDAFIERGERRQPVASFE
QALDWLVKESRRGLSIQRYKGLGEMNPEQLWETTMDPESRRMLRVTVKDAIAADQLFTTL
MGDAVEPRRAFIEENALKAANIDI

> <PDB ID(s) of Target Chain>
1KZN,3G7E,3NUH,4DUH,4HYP,4KFG,4PRV,4PRX,4PU9,4WUB,4WUC,4WUD,4XTJ,4ZVI,5L3J,5MMN,5MMO,5MMP,5Z4H,5Z4O,5Z9B,5Z9E,5Z9F,5Z9L,5Z9M,5Z9N,5Z9Q,6ENG,6F86,6F8J,6F94,6F96

> <UniProt (SwissProt) Recommended Name of Target Chain>
DNA gyrase subunit B

> <UniProt (SwissProt) Entry Name of Target Chain>
GYRB_ECOLI

> <UniProt (SwissProt) Primary ID of Target Chain>
P0AES6

> <UniProt (SwissProt) Secondary ID(s) of Target Chain>
O08438,P06982,Q2M811

> <UniProt (SwissProt) Alternative ID(s) of Target Chain>


> <UniProt (TrEMBL) Submitted Name of Target Chain>


> <UniProt (TrEMBL) Entry Name of Target Chain>


> <UniProt (TrEMBL) Primary ID of Target Chain>


> <UniProt (TrEMBL) Secondary ID(s) of Target Chain>


> <UniProt (TrEMBL) Alternative ID(s) of Target Chain>


$$$$

  Mrv0541 03201611132D          

 26 29  0  0  0  0            999 V2000
   16.5700  -23.5667    0.0000 N   0  0  0  0  0  0  0  0  0  0  0  0
   16.3128  -24.3514    0.0000 C   0  0  0  0  0  0  0  0  0  0  0  0
   15.5068  -24.5238    0.0000 C   0  0  0  0  0  0  0  0  0  0  0  0
   14.9579  -23.9116    0.0000 N   0  0  0  0  0  0  0  0  0  0  0  0
   15.2108  -23.1269    0.0000 C   0  0  0  0  0  0  0  0  0  0  0  0
   16.0168  -22.9545    0.0000 C   0  0  0  0  0  0  0  0  0  0  0  0
   17.3760  -23.3944    0.0000 C   0  0  0  0  0  0  0  0  0  0  0  0
   17.6330  -22.6098    0.0000 N   0  0  0  0  0  0  0  0  0  0  0  0
   17.9290  -24.0066    0.0000 S   0  0  0  0  0  0  0  0  0  0  0  0
   18.4279  -22.3987    0.0000 C   0  0  0  0  0  0  0  0  0  0  0  0
   18.6432  -21.5996    0.0000 C   0  0  0  0  0  0  0  0  0  0  0  0
   19.4381  -21.3845    0.0000 C   0  0  0  0  0  0  0  0  0  0  0  0
   20.0219  -21.9683    0.0000 C   0  0  0  0  0  0  0  0  0  0  0  0
   19.8109  -22.7674    0.0000 C   0  0  0  0  0  0  0  0  0  0  0  0
   19.0118  -22.9826    0.0000 C   0  0  0  0  0  0  0  0  0  0  0  0
   20.8168  -21.7573    0.0000 O   0  0  0  0  0  0  0  0  0  0  0  0
   21.0320  -20.9583    0.0000 C   0  0  0  0  0  0  0  0  0  0  0  0
   12.9920  -24.7494    0.0000 S   0  0  0  0  0  0  0  0  0  0  0  0
   13.8143  -24.8342    0.0000 N   0  0  0  0  0  0  0  0  0  0  0  0
   14.1478  -24.0798    0.0000 C   0  0  0  0  0  0  0  0  0  0  0  0
   13.5355  -23.5309    0.0000 C   0  0  0  0  0  0  0  0  0  0  0  0
   12.8196  -23.9434    0.0000 C   0  0  0  0  0  0  0  0  0  0  0  0
   12.1080  -23.5309    0.0000 C   0  0  0  0  0  0  0  0  0  0  0  0
   12.1080  -22.7059    0.0000 C   0  0  0  0  0  0  0  0  0  0  0  0
   12.8196  -22.2934    0.0000 C   0  0  0  0  0  0  0  0  0  0  0  0
   13.5355  -22.7059    0.0000 C   0  0  0  0  0  0  0  0  0  0  0  0
  1  2  1  0  0  0  0
  2  3  1  0  0  0  0
  3  4  1  0  0  0  0
  4  5  1  0  0  0  0
  5  6  1  0  0  0  0
  1  6  1  0  0  0  0
  7  8  1  0  0  0  0
  7  9  2  0  0  0  0
  1  7  1  0  0  0  0
 10 11  4  0  0  0  0
 11 12  4  0  0  0  0
 12 13  4  0  0  0  0
 13 14  4  0  0  0  0
 14 15  4  0  0  0  0
 10 15  4  0  0  0  0
 16 17  1  0  0  0  0
 13 16  1  0  0  0  0
  8 10  1  0  0  0  0
 18 19  4  0  0  0  0
 19 20  4  0  0  0  0
 20 21  4  0  0  0  0
 21 22  4  0  0  0  0
 18 22  4  0  0  0  0
 23 24  4  0  0  0  0
 24 25  4  0  0  0  0
 25 26  4  0  0  0  0
 21 26  4  0  0  0  0
 22 23  4  0  0  0  0
  4 20  1  0  0  0  0
M  END
> <From> 
www.bindingDB.org

> <BindingDB Reactant_set_id>
50254212

> <Ligand InChI>
InChI=1S/C19H20N4OS2/c1-24-15-8-6-14(7-9-15)20-19(25)23-12-10-22(11-13-23)18-16-4-2-3-5-17(16)26-21-18/h2-9H,10-13H2,1H3,(H,20,25)

> <Ligand InChI Key>
PVELWAKDYRMZML-UHFFFAOYSA-N

> <BindingDB MonomerID>
50037194

> <BindingDB Ligand Name>
CHEMBL3355807

> <Target Name Assigned by Curator or DataSource>
DNA gyrase subunit B

> <Target Source Organism According to Curator or DataSource>


> <Ki (nM)>


> <IC50 (nM)>
 2860

> <Kd (nM)>


> <EC50 (nM)>


> <kon (M-1-s-1)>


> <koff (s-1)>


> <pH>


> <Temp C>


> <Curation/DataSource>
ChEMBL

> <Article DOI>
10.1016/j.bmc.2014.10.016

> <PMID>
25456076

> <PubChem AID>


> <Patent Number>


> <Authors>
Reddy, KI; Srihari, K; Renuka, J; Sree, KS; Chuppala, A; Jeankumar, VU; Sridevi, JP; Babu, KS; Yogeeswari, P; Sriram, D

> <Institution>
TBA

> <Link to Ligand in BindingDB>
http://www.bindingdb.org/bind/chemsearch/marvin/MolStructure.jsp?monomerid=50037194

> <Link to Ligand-Target Pair in BindingDB>
http://www.bindingdb.org/jsp/dbsearch/PrimarySearch_ki.jsp?energyterm=kJ/mole&tag=pol&polymerid=50006452&target=DNA+gyrase+subunit+B&column=ki&startPg=0&Increment=50&submit=Search

> <Link to Ligand-Target Pair in BindingDB>
http://www.bindingdb.org/jsp/dbsearch/PrimarySearch_ki.jsp?energyterm=kJ/mole&tag=r21&monomerid=50037194&enzyme=DNA+gyrase+subunit+B&column=ki&startPg=0&Increment=50&submit=Search

> <Ligand HET ID in PDB>


> <PDB ID(s) for Ligand-Target Complex>


> <PubChem CID>
118721102

> <PubChem SID>
313067071

> <ChEBI ID of Ligand>


> <ChEMBL ID of Ligand>


> <DrugBank ID of Ligand>


> <IUPHAR_GRAC ID of Ligand>


> <KEGG ID of Ligand>


> <ZINC ID of Ligand>


> <Number of Protein Chains in Target (>1 implies a multichain complex)>
1

> <BindingDB Target Chain Sequence>
MAAQKNNAPKEYGADSITILEGLEAVRKRPGMYIGSTGERGLHHLIWEVVDNAVDEAMAGFATRVDVKIHADGSVEVRDDGRGIPVEMHATGMPTIDVVMTQLHAGGKFDGETYAVSGGLHGVGVSVVNALSTRLEATVLRDGYEWFQYYDRSVPGKLKQGGETKETGTTIRFWADPEIFETTDYNFETVARRLQEMAFLNKGLTIELTDERVTAEEVVDDVVKDTAEAPKTADEKAAEATGPSKVKHRVFHYPGGLVDYVKHINRTKTPIQQSIIDFDGKGPGHEVEIAMQWNAGYSESVHTFANTINTHEGGTHEEGFRAALTSVVNRYAKDKKLLKDKDPNLTGDDIREGLAAVISVKVAEPQFEGQTKTKLGNTEVKSFVQKICNEQLQHWFEANPAEAKTVVNKAVSSAQARIAARKARELVRRKSATDIGGLPGKLADCRSTDPSKSELYVVEGDSAGGSAKSGRDSMFQAILPLRGKIINVEKARIDRVLKNTEVQSIITALGTGIHDEFDISKLRYHKIVLMADADVDGQHISTLLLTLLFRFMKPLVENGHIFLAQPPLYKLKWQRSEPEFAYSDRERDGLLEAGRAAGKKINVDDGIQRYKGLGEMDAKELWETTMDPSVRVLRQVTLDDAAAADELFSILMGEDVEARRSFITRNAKDVRFLDV

> <PDB ID(s) of Target Chain>
4BAE

> <UniProt (SwissProt) Recommended Name of Target Chain>
DNA gyrase subunit B

> <UniProt (SwissProt) Entry Name of Target Chain>
GYRB_MYCSM

> <UniProt (SwissProt) Primary ID of Target Chain>
P0C559

> <UniProt (SwissProt) Secondary ID(s) of Target Chain>
P48355,Q59555

> <UniProt (SwissProt) Alternative ID(s) of Target Chain>


> <UniProt (TrEMBL) Submitted Name of Target Chain>


> <UniProt (TrEMBL) Entry Name of Target Chain>


> <UniProt (TrEMBL) Primary ID of Target Chain>


> <UniProt (TrEMBL) Secondary ID(s) of Target Chain>


> <UniProt (TrEMBL) Alternative ID(s) of Target Chain>


$$$$

  Mrv0541 11241420052D          

 27 29  0  0  0  0            999 V2000
   11.5526  -25.1663    0.0000 C   0  0  0  0  0  0  0  0  0  0  0  0
   11.5514  -25.9938    0.0000 C   0  0  0  0  0  0  0  0  0  0  0  0
   12.2663  -26.4066    0.0000 N   0  0  0  0  0  0  0  0  0  0  0  0
   12.2645  -24.7536    0.0000 C   0  0  0  0  0  0  0  0  0  0  0  0
   10.8381  -24.7541    0.0000 C   0  0  0  0  0  0  0  0  0  0  0  0
   10.8413  -23.9281    0.0000 C   0  0  0  0  0  0  0  0  0  0  0  0
   10.1276  -23.5158    0.0000 N   0  0  0  0  0  0  0  0  0  0  0  0
    9.4122  -23.9285    0.0000 C   0  0  0  0  0  0  0  0  0  0  0  0
    9.4151  -24.7579    0.0000 C   0  0  0  0  0  0  0  0  0  0  0  0
   10.1294  -25.1663    0.0000 C   0  0  0  0  0  0  0  0  0  0  0  0
   12.9798  -25.1627    0.0000 C   0  0  0  0  0  0  0  0  0  0  0  0
   12.9801  -25.9938    0.0000 C   0  0  0  0  0  0  0  0  0  0  0  0
   13.7705  -26.2504    0.0000 S   0  0  0  0  0  0  0  0  0  0  0  0
   14.2589  -25.5778    0.0000 C   0  0  0  0  0  0  0  0  0  0  0  0
   13.7701  -24.9058    0.0000 N   0  0  0  0  0  0  0  0  0  0  0  0
   15.0838  -25.5775    0.0000 N   0  0  0  0  0  0  0  0  0  0  0  0
   15.4961  -24.8630    0.0000 C   0  0  0  0  0  0  0  0  0  0  0  0
   16.3211  -24.8627    0.0000 O   0  0  0  0  0  0  0  0  0  0  0  0
   15.0834  -24.1486    0.0000 N   0  0  0  0  0  0  0  0  0  0  0  0
   15.4956  -23.4341    0.0000 C   0  0  0  0  0  0  0  0  0  0  0  0
   15.0829  -22.7197    0.0000 C   0  0  0  0  0  0  0  0  0  0  0  0
   10.8367  -26.4057    0.0000 O   0  0  0  0  0  0  0  0  0  0  0  0
   12.2665  -27.2316    0.0000 C   0  0  0  0  0  0  0  0  0  0  0  0
   11.5521  -27.6443    0.0000 C   0  0  0  0  0  0  0  0  0  0  0  0
   12.9810  -27.6439    0.0000 C   0  0  0  0  0  0  0  0  0  0  0  0
   12.9831  -28.4702    0.0000 O   0  0  0  0  0  0  0  0  0  0  0  0
   13.6972  -27.2325    0.0000 O   0  0  0  0  0  0  0  0  0  0  0  0
  1  2  1  0  0  0  0
  2  3  1  0  0  0  0
  3 12  1  0  0  0  0
 11  4  1  0  0  0  0
  4  1  2  0  0  0  0
  1  5  1  0  0  0  0
  5  6  2  0  0  0  0
  6  7  1  0  0  0  0
  7  8  2  0  0  0  0
  8  9  1  0  0  0  0
  9 10  2  0  0  0  0
 10  5  1  0  0  0  0
 11 12  2  0  0  0  0
 12 13  1  0  0  0  0
 13 14  1  0  0  0  0
 14 15  2  0  0  0  0
 15 11  1  0  0  0  0
 14 16  1  0  0  0  0
 16 17  1  0  0  0  0
 17 18  2  0  0  0  0
 17 19  1  0  0  0  0
 19 20  1  0  0  0  0
 20 21  1  0  0  0  0
  2 22  2  0  0  0  0
  3 23  1  0  0  0  0
 23 24  1  0  0  0  0
 23 25  1  0  0  0  0
 25 26  1  0  0  0  0
 25 27  2  0  0  0  0
M  END
> <From> 
www.bindingDB.org

> <BindingDB Reactant_set_id>
51091622

> <Ligand InChI>
InChI=1S/C17H17N5O4S/c1-3-19-16(26)21-17-20-12-7-11(10-5-4-6-18-8-10)13(23)22(14(12)27-17)9(2)15(24)25/h4-9H,3H2,1-2H3,(H,24,25)(H2,19,20,21,26)

> <Ligand InChI Key>
XGAMHWBNQFNHNU-UHFFFAOYSA-N

> <BindingDB MonomerID>
50447310

> <BindingDB Ligand Name>
CHEMBL3114195

> <Target Name Assigned by Curator or DataSource>
DNA gyrase subunit B

> <Target Source Organism According to Curator or DataSource>


> <Ki (nM)>


> <IC50 (nM)>
 2870

> <Kd (nM)>


> <EC50 (nM)>


> <kon (M-1-s-1)>


> <koff (s-1)>


> <pH>


> <Temp C>


> <Curation/DataSource>
ChEMBL

> <Article DOI>
10.1016/j.bmcl.2013.12.080

> <PMID>
24405701

> <PubChem AID>


> <Patent Number>


> <Authors>
Kale, RR; Kale, MG; Waterson, D; Raichurkar, A; Hameed, SP; Manjunatha, MR; Kishore Reddy, BK; Malolanarasimhan, K; Shinde, V; Koushik, K; Jena, LK; Menasinakai, S; Humnabadkar, V; Madhavapeddi, P; Basavarajappa, H; Sharma, S; Nandishaiah, R; Mahesh Kumar, KN; Ganguly, S; Ahuja, V; Gaonkar, S; Naveen Kumar, CN; Ogg, D; Boriack-Sjodin, PA; Sambandamurthy, VK; de Sousa, SM; Ghorpade, SR

> <Institution>
AstraZeneca

> <Link to Ligand in BindingDB>
http://www.bindingdb.org/bind/chemsearch/marvin/MolStructure.jsp?monomerid=50447310

> <Link to Ligand-Target Pair in BindingDB>
http://www.bindingdb.org/jsp/dbsearch/PrimarySearch_ki.jsp?energyterm=kJ/mole&tag=pol&polymerid=50006452&target=DNA+gyrase+subunit+B&column=ki&startPg=0&Increment=50&submit=Search

> <Link to Ligand-Target Pair in BindingDB>
http://www.bindingdb.org/jsp/dbsearch/PrimarySearch_ki.jsp?energyterm=kJ/mole&tag=r21&monomerid=50447310&enzyme=DNA+gyrase+subunit+B&column=ki&startPg=0&Increment=50&submit=Search

> <Ligand HET ID in PDB>


> <PDB ID(s) for Ligand-Target Complex>


> <PubChem CID>
76335928

> <PubChem SID>
194945206

> <ChEBI ID of Ligand>


> <ChEMBL ID of Ligand>
CHEMBL3114195

> <DrugBank ID of Ligand>


> <IUPHAR_GRAC ID of Ligand>


> <KEGG ID of Ligand>


> <ZINC ID of Ligand>


> <Number of Protein Chains in Target (>1 implies a multichain complex)>
1

> <BindingDB Target Chain Sequence>
MAAQKNNAPKEYGADSITILEGLEAVRKRPGMYIGSTGERGLHHLIWEVVDNAVDEAMAGFATRVDVKIHADGSVEVRDDGRGIPVEMHATGMPTIDVVMTQLHAGGKFDGETYAVSGGLHGVGVSVVNALSTRLEATVLRDGYEWFQYYDRSVPGKLKQGGETKETGTTIRFWADPEIFETTDYNFETVARRLQEMAFLNKGLTIELTDERVTAEEVVDDVVKDTAEAPKTADEKAAEATGPSKVKHRVFHYPGGLVDYVKHINRTKTPIQQSIIDFDGKGPGHEVEIAMQWNAGYSESVHTFANTINTHEGGTHEEGFRAALTSVVNRYAKDKKLLKDKDPNLTGDDIREGLAAVISVKVAEPQFEGQTKTKLGNTEVKSFVQKICNEQLQHWFEANPAEAKTVVNKAVSSAQARIAARKARELVRRKSATDIGGLPGKLADCRSTDPSKSELYVVEGDSAGGSAKSGRDSMFQAILPLRGKIINVEKARIDRVLKNTEVQSIITALGTGIHDEFDISKLRYHKIVLMADADVDGQHISTLLLTLLFRFMKPLVENGHIFLAQPPLYKLKWQRSEPEFAYSDRERDGLLEAGRAAGKKINVDDGIQRYKGLGEMDAKELWETTMDPSVRVLRQVTLDDAAAADELFSILMGEDVEARRSFITRNAKDVRFLDV

> <PDB ID(s) of Target Chain>
4BAE

> <UniProt (SwissProt) Recommended Name of Target Chain>
DNA gyrase subunit B

> <UniProt (SwissProt) Entry Name of Target Chain>
GYRB_MYCSM

> <UniProt (SwissProt) Primary ID of Target Chain>
P0C559

> <UniProt (SwissProt) Secondary ID(s) of Target Chain>
P48355,Q59555

> <UniProt (SwissProt) Alternative ID(s) of Target Chain>


> <UniProt (TrEMBL) Submitted Name of Target Chain>


> <UniProt (TrEMBL) Entry Name of Target Chain>


> <UniProt (TrEMBL) Primary ID of Target Chain>


> <UniProt (TrEMBL) Secondary ID(s) of Target Chain>


> <UniProt (TrEMBL) Alternative ID(s) of Target Chain>


$$$$

  SciTegic04201612532D

 34 37  0  0  0  0            999 V2000
   -1.2964    1.4973    0.0000 N   0  0
   -2.6111    0.7486    0.0000 C   0  0
   -2.6111   -0.7486    0.0000 C   0  0
   -1.2964   -1.4973    0.0000 C   0  0
    0.0000   -0.7486    0.0000 C   0  0
    1.2964   -1.4973    0.0000 C   0  0
    2.5929   -0.7486    0.0000 C   0  0
    2.5929    0.7486    0.0000 C   0  0
    1.2964    1.4973    0.0000 C   0  0
    0.0000    0.7486    0.0000 C   0  0
   -3.9122   -1.4966    0.0000 C   0  0
   -3.9138   -2.4966    0.0000 O   0  0
   -5.2109   -0.7445    0.0000 N   0  0
   -1.2907   -2.9981    0.0000 N   0  0
   -2.5870   -3.7544    0.0000 C   0  0
   -2.5835   -5.2544    0.0000 C   0  0
   -3.8807   -6.0076    0.0000 C   0  0
   -5.1815   -5.2608    0.0000 C   0  0
   -5.1852   -3.7608    0.0000 C   0  0
   -3.8880   -3.0076    0.0000 C   0  0
   -6.4810   -6.0117    0.0000 O   0  0
   -7.7815   -5.2626    0.0000 C   0  0
   -9.0810   -6.0135    0.0000 C   0  0
  -10.3815   -5.2644    0.0000 C   0  0
  -14.2755   -7.5217    0.0000 N   0  0
  -14.2791   -6.0217    0.0000 C   0  0
  -12.9819   -5.2686    0.0000 C   0  0
  -11.6810   -6.0154    0.0000 N   0  0
  -11.6774   -7.5154    0.0000 C   0  0
  -12.9746   -8.2686    0.0000 C   0  0
   -6.2513   -1.3425    0.0000 N   0  0
  -15.5719   -8.2779    0.0000 C   0  0
  -15.5672   -9.4779    0.0000 C   0  0
    3.6321   -1.3486    0.0000 F   0  0
  1  2  2  0
  2  3  1  0
  3  4  2  0
  4  5  1  0
  5  6  2  0
  6  7  1  0
  7  8  2  0
  8  9  1  0
  9 10  2  0
  1 10  1  0
  5 10  1  0
 11 12  2  0
 11 13  1  0
  3 11  1  0
 15 16  1  0
 16 17  2  0
 17 18  1  0
 18 19  2  0
 19 20  1  0
 15 20  2  0
 22 23  1  0
 23 24  1  0
 21 22  1  0
 25 26  1  0
 26 27  1  0
 27 28  1  0
 28 29  1  0
 29 30  1  0
 25 30  1  0
 24 28  1  0
 18 21  1  0
 14 15  1  0
  4 14  1  0
 13 31  1  0
 25 32  1  0
 32 33  1  0
  7 34  1  0
M  END
> <From> 
www.bindingDB.org

> <BindingDB Reactant_set_id>
50426768

> <Ligand InChI>
InChI=1S/C25H31FN6O2/c1-2-31-11-13-32(14-12-31)10-3-15-34-20-7-5-19(6-8-20)29-24-21-16-18(26)4-9-23(21)28-17-22(24)25(33)30-27/h4-9,16-17H,2-3,10-15,27H2,1H3,(H,28,29)(H,30,33)

> <Ligand InChI Key>
NMVMMUABJVCFAH-UHFFFAOYSA-N

> <BindingDB MonomerID>
50126482

> <BindingDB Ligand Name>
CHEMBL3628449

> <Target Name Assigned by Curator or DataSource>
DNA gyrase subunit B

> <Target Source Organism According to Curator or DataSource>


> <Ki (nM)>


> <IC50 (nM)>
 2920

> <Kd (nM)>


> <EC50 (nM)>


> <kon (M-1-s-1)>


> <koff (s-1)>


> <pH>


> <Temp C>


> <Curation/DataSource>
ChEMBL

> <Article DOI>
10.1016/j.ejmech.2015.06.032

> <PMID>
26318054

> <PubChem AID>


> <Patent Number>


> <Authors>
Medapi, B; Suryadevara, P; Renuka, J; Sridevi, JP; Yogeeswari, P; Sriram, D

> <Institution>
Birla Institute of Technology&amp;Science

> <Link to Ligand in BindingDB>
http://www.bindingdb.org/bind/chemsearch/marvin/MolStructure.jsp?monomerid=50126482

> <Link to Ligand-Target Pair in BindingDB>
http://www.bindingdb.org/jsp/dbsearch/PrimarySearch_ki.jsp?energyterm=kJ/mole&tag=pol&polymerid=50006452&target=DNA+gyrase+subunit+B&column=ki&startPg=0&Increment=50&submit=Search

> <Link to Ligand-Target Pair in BindingDB>
http://www.bindingdb.org/jsp/dbsearch/PrimarySearch_ki.jsp?energyterm=kJ/mole&tag=r21&monomerid=50126482&enzyme=DNA+gyrase+subunit+B&column=ki&startPg=0&Increment=50&submit=Search

> <Ligand HET ID in PDB>


> <PDB ID(s) for Ligand-Target Complex>


> <PubChem CID>
122193463

> <PubChem SID>
321902392

> <ChEBI ID of Ligand>


> <ChEMBL ID of Ligand>


> <DrugBank ID of Ligand>


> <IUPHAR_GRAC ID of Ligand>


> <KEGG ID of Ligand>


> <ZINC ID of Ligand>


> <Number of Protein Chains in Target (>1 implies a multichain complex)>
1

> <BindingDB Target Chain Sequence>
MAAQKNNAPKEYGADSITILEGLEAVRKRPGMYIGSTGERGLHHLIWEVVDNAVDEAMAGFATRVDVKIHADGSVEVRDDGRGIPVEMHATGMPTIDVVMTQLHAGGKFDGETYAVSGGLHGVGVSVVNALSTRLEATVLRDGYEWFQYYDRSVPGKLKQGGETKETGTTIRFWADPEIFETTDYNFETVARRLQEMAFLNKGLTIELTDERVTAEEVVDDVVKDTAEAPKTADEKAAEATGPSKVKHRVFHYPGGLVDYVKHINRTKTPIQQSIIDFDGKGPGHEVEIAMQWNAGYSESVHTFANTINTHEGGTHEEGFRAALTSVVNRYAKDKKLLKDKDPNLTGDDIREGLAAVISVKVAEPQFEGQTKTKLGNTEVKSFVQKICNEQLQHWFEANPAEAKTVVNKAVSSAQARIAARKARELVRRKSATDIGGLPGKLADCRSTDPSKSELYVVEGDSAGGSAKSGRDSMFQAILPLRGKIINVEKARIDRVLKNTEVQSIITALGTGIHDEFDISKLRYHKIVLMADADVDGQHISTLLLTLLFRFMKPLVENGHIFLAQPPLYKLKWQRSEPEFAYSDRERDGLLEAGRAAGKKINVDDGIQRYKGLGEMDAKELWETTMDPSVRVLRQVTLDDAAAADELFSILMGEDVEARRSFITRNAKDVRFLDV

> <PDB ID(s) of Target Chain>
4BAE

> <UniProt (SwissProt) Recommended Name of Target Chain>
DNA gyrase subunit B

> <UniProt (SwissProt) Entry Name of Target Chain>
GYRB_MYCSM

> <UniProt (SwissProt) Primary ID of Target Chain>
P0C559

> <UniProt (SwissProt) Secondary ID(s) of Target Chain>
P48355,Q59555

> <UniProt (SwissProt) Alternative ID(s) of Target Chain>


> <UniProt (TrEMBL) Submitted Name of Target Chain>


> <UniProt (TrEMBL) Entry Name of Target Chain>


> <UniProt (TrEMBL) Primary ID of Target Chain>


> <UniProt (TrEMBL) Secondary ID(s) of Target Chain>


> <UniProt (TrEMBL) Alternative ID(s) of Target Chain>


$$$$

  Mrv0541 03201611132D          

 31 34  0  0  0  0            999 V2000
   18.2642   -8.8866    0.0000 O   0  0  0  0  0  0  0  0  0  0  0  0
   18.7490   -8.2212    0.0000 C   0  0  0  0  0  0  0  0  0  0  0  0
   18.2642   -7.5516    0.0000 C   0  0  0  0  0  0  0  0  0  0  0  0
   17.4796   -7.8087    0.0000 C   0  0  0  0  0  0  0  0  0  0  0  0
   17.4796   -8.6337    0.0000 C   0  0  0  0  0  0  0  0  0  0  0  0
   16.7637   -7.3962    0.0000 C   0  0  0  0  0  0  0  0  0  0  0  0
   16.0520   -7.8087    0.0000 C   0  0  0  0  0  0  0  0  0  0  0  0
   16.0520   -8.6337    0.0000 C   0  0  0  0  0  0  0  0  0  0  0  0
   16.7637   -9.0462    0.0000 C   0  0  0  0  0  0  0  0  0  0  0  0
   19.5739   -8.2212    0.0000 C   0  0  0  0  0  0  0  0  0  0  0  0
   19.9864   -8.9330    0.0000 O   0  0  0  0  0  0  0  0  0  0  0  0
   19.9864   -7.5054    0.0000 O   0  0  0  0  0  0  0  0  0  0  0  0
   15.3361   -7.3962    0.0000 N   0  0  0  0  0  0  0  0  0  0  0  0
   14.6245   -7.8087    0.0000 C   0  0  0  0  0  0  0  0  0  0  0  0
   13.9086   -7.3962    0.0000 C   0  0  0  0  0  0  0  0  0  0  0  0
   13.9086   -6.5712    0.0000 N   0  0  0  0  0  0  0  0  0  0  0  0
   14.6245   -6.1546    0.0000 C   0  0  0  0  0  0  0  0  0  0  0  0
   15.3361   -6.5712    0.0000 C   0  0  0  0  0  0  0  0  0  0  0  0
   13.1927   -6.1546    0.0000 C   0  0  0  0  0  0  0  0  0  0  0  0
   12.4769   -6.5712    0.0000 N   0  0  0  0  0  0  0  0  0  0  0  0
   13.1927   -5.3296    0.0000 O   0  0  0  0  0  0  0  0  0  0  0  0
   11.7651   -6.1546    0.0000 C   0  0  0  0  0  0  0  0  0  0  0  0
   11.0494   -6.5712    0.0000 C   0  0  0  0  0  0  0  0  0  0  0  0
   11.0494   -7.3962    0.0000 C   0  0  0  0  0  0  0  0  0  0  0  0
   10.3335   -7.8087    0.0000 C   0  0  0  0  0  0  0  0  0  0  0  0
    9.6218   -7.3962    0.0000 C   0  0  0  0  0  0  0  0  0  0  0  0
    9.6218   -6.5712    0.0000 C   0  0  0  0  0  0  0  0  0  0  0  0
   10.3335   -6.1546    0.0000 C   0  0  0  0  0  0  0  0  0  0  0  0
    8.9059   -7.8087    0.0000 Cl  0  0  0  0  0  0  0  0  0  0  0  0
   20.8114   -7.5054    0.0000 C   0  0  0  0  0  0  0  0  0  0  0  0
   21.2239   -6.7895    0.0000 C   0  0  0  0  0  0  0  0  0  0  0  0
  1  2  4  0  0  0  0
  2  3  4  0  0  0  0
  3  4  4  0  0  0  0
  4  5  4  0  0  0  0
  1  5  4  0  0  0  0
  6  7  4  0  0  0  0
  7  8  4  0  0  0  0
  8  9  4  0  0  0  0
  5  9  4  0  0  0  0
  4  6  4  0  0  0  0
 10 11  2  0  0  0  0
 10 12  1  0  0  0  0
  2 10  1  0  0  0  0
 13 14  1  0  0  0  0
 14 15  1  0  0  0  0
 15 16  1  0  0  0  0
 16 17  1  0  0  0  0
 17 18  1  0  0  0  0
 13 18  1  0  0  0  0
 19 20  1  0  0  0  0
 19 21  2  0  0  0  0
 22 23  1  0  0  0  0
 23 24  4  0  0  0  0
 24 25  4  0  0  0  0
 25 26  4  0  0  0  0
 26 27  4  0  0  0  0
 27 28  4  0  0  0  0
 23 28  4  0  0  0  0
 26 29  1  0  0  0  0
 20 22  1  0  0  0  0
 16 19  1  0  0  0  0
  7 13  1  0  0  0  0
 30 31  1  0  0  0  0
 12 30  1  0  0  0  0
M  END
> <From> 
www.bindingDB.org

> <BindingDB Reactant_set_id>
50254205

> <Ligand InChI>
InChI=1S/C23H24ClN3O4/c1-2-30-22(28)21-14-17-13-19(7-8-20(17)31-21)26-9-11-27(12-10-26)23(29)25-15-16-3-5-18(24)6-4-16/h3-8,13-14H,2,9-12,15H2,1H3,(H,25,29)

> <Ligand InChI Key>
QTXVTLMLSFDJFK-UHFFFAOYSA-N

> <BindingDB MonomerID>
50037093

> <BindingDB Ligand Name>
CHEMBL3355788

> <Target Name Assigned by Curator or DataSource>
DNA gyrase subunit B

> <Target Source Organism According to Curator or DataSource>


> <Ki (nM)>


> <IC50 (nM)>
 2970

> <Kd (nM)>


> <EC50 (nM)>


> <kon (M-1-s-1)>


> <koff (s-1)>


> <pH>


> <Temp C>


> <Curation/DataSource>
ChEMBL

> <Article DOI>
10.1016/j.bmc.2014.10.016

> <PMID>
25456076

> <PubChem AID>


> <Patent Number>


> <Authors>
Reddy, KI; Srihari, K; Renuka, J; Sree, KS; Chuppala, A; Jeankumar, VU; Sridevi, JP; Babu, KS; Yogeeswari, P; Sriram, D

> <Institution>
TBA

> <Link to Ligand in BindingDB>
http://www.bindingdb.org/bind/chemsearch/marvin/MolStructure.jsp?monomerid=50037093

> <Link to Ligand-Target Pair in BindingDB>
http://www.bindingdb.org/jsp/dbsearch/PrimarySearch_ki.jsp?energyterm=kJ/mole&tag=pol&polymerid=50006452&target=DNA+gyrase+subunit+B&column=ki&startPg=0&Increment=50&submit=Search

> <Link to Ligand-Target Pair in BindingDB>
http://www.bindingdb.org/jsp/dbsearch/PrimarySearch_ki.jsp?energyterm=kJ/mole&tag=r21&monomerid=50037093&enzyme=DNA+gyrase+subunit+B&column=ki&startPg=0&Increment=50&submit=Search

> <Ligand HET ID in PDB>


> <PDB ID(s) for Ligand-Target Complex>


> <PubChem CID>
118721088

> <PubChem SID>
312528645

> <ChEBI ID of Ligand>


> <ChEMBL ID of Ligand>


> <DrugBank ID of Ligand>


> <IUPHAR_GRAC ID of Ligand>


> <KEGG ID of Ligand>


> <ZINC ID of Ligand>


> <Number of Protein Chains in Target (>1 implies a multichain complex)>
1

> <BindingDB Target Chain Sequence>
MAAQKNNAPKEYGADSITILEGLEAVRKRPGMYIGSTGERGLHHLIWEVVDNAVDEAMAGFATRVDVKIHADGSVEVRDDGRGIPVEMHATGMPTIDVVMTQLHAGGKFDGETYAVSGGLHGVGVSVVNALSTRLEATVLRDGYEWFQYYDRSVPGKLKQGGETKETGTTIRFWADPEIFETTDYNFETVARRLQEMAFLNKGLTIELTDERVTAEEVVDDVVKDTAEAPKTADEKAAEATGPSKVKHRVFHYPGGLVDYVKHINRTKTPIQQSIIDFDGKGPGHEVEIAMQWNAGYSESVHTFANTINTHEGGTHEEGFRAALTSVVNRYAKDKKLLKDKDPNLTGDDIREGLAAVISVKVAEPQFEGQTKTKLGNTEVKSFVQKICNEQLQHWFEANPAEAKTVVNKAVSSAQARIAARKARELVRRKSATDIGGLPGKLADCRSTDPSKSELYVVEGDSAGGSAKSGRDSMFQAILPLRGKIINVEKARIDRVLKNTEVQSIITALGTGIHDEFDISKLRYHKIVLMADADVDGQHISTLLLTLLFRFMKPLVENGHIFLAQPPLYKLKWQRSEPEFAYSDRERDGLLEAGRAAGKKINVDDGIQRYKGLGEMDAKELWETTMDPSVRVLRQVTLDDAAAADELFSILMGEDVEARRSFITRNAKDVRFLDV

> <PDB ID(s) of Target Chain>
4BAE

> <UniProt (SwissProt) Recommended Name of Target Chain>
DNA gyrase subunit B

> <UniProt (SwissProt) Entry Name of Target Chain>
GYRB_MYCSM

> <UniProt (SwissProt) Primary ID of Target Chain>
P0C559

> <UniProt (SwissProt) Secondary ID(s) of Target Chain>
P48355,Q59555

> <UniProt (SwissProt) Alternative ID(s) of Target Chain>


> <UniProt (TrEMBL) Submitted Name of Target Chain>


> <UniProt (TrEMBL) Entry Name of Target Chain>


> <UniProt (TrEMBL) Primary ID of Target Chain>


> <UniProt (TrEMBL) Secondary ID(s) of Target Chain>


> <UniProt (TrEMBL) Alternative ID(s) of Target Chain>


$$$$

  SciTegic12221702112D

 27 30  0  0  0  0            999 V2000
    7.5048   -4.7086    0.0000 N   0  0
    6.7914   -5.1064    0.0000 C   0  0
    6.7785   -5.9235    0.0000 C   0  0
    7.4831   -6.3427    0.0000 N   0  0
    8.1965   -5.9448    0.0000 C   0  0
    8.2053   -5.1277    0.0000 C   0  0
    7.5137   -3.8915    0.0000 C   0  0
    8.2270   -3.4936    0.0000 N   0  0
    6.8132   -3.4723    0.0000 O   0  0
    8.2400   -2.6765    0.0000 C   0  0
    8.9534   -2.2745    0.0000 C   0  0
    8.9663   -1.4574    0.0000 C   0  0
    8.2617   -1.0424    0.0000 C   0  0
    7.5483   -1.4403    0.0000 C   0  0
    7.5395   -2.2573    0.0000 C   0  0
    7.4484   -8.7939    0.0000 N   0  0
    8.1618   -8.3960    0.0000 C   0  0
    8.1706   -7.5790    0.0000 C   0  0
    7.4701   -7.1598    0.0000 C   0  0
    6.7568   -7.5577    0.0000 C   0  0
    6.0563   -7.1385    0.0000 C   0  0
    5.3429   -7.5364    0.0000 C   0  0
    5.3300   -8.3576    0.0000 C   0  0
    6.0304   -8.7726    0.0000 C   0  0
    6.7479   -8.3747    0.0000 C   0  0
    4.6166   -8.7554    0.0000 Cl  0  0
    8.2714   -0.2252    0.0000 F   0  0
  1  2  1  0
  2  3  1  0
  3  4  1  0
  4  5  1  0
  5  6  1  0
  1  6  1  0
  7  8  1  0
  7  9  2  0
  1  7  1  0
 10 11  1  0
 11 12  2  0
 12 13  1  0
 13 14  2  0
 14 15  1  0
 10 15  2  0
  8 10  1  0
 16 17  2  0
 17 18  1  0
 18 19  2  0
 19 20  1  0
 20 21  2  0
 21 22  1  0
 22 23  2  0
 23 24  1  0
 24 25  2  0
 16 25  1  0
 20 25  1  0
 23 26  1  0
  4 19  1  0
 13 27  1  0
M  END
> <From> 
www.bindingDB.org

> <BindingDB Reactant_set_id>
50528063

> <Ligand InChI>
InChI=1S/C20H18ClFN4O/c21-14-1-6-17-18(13-14)23-8-7-19(17)25-9-11-26(12-10-25)20(27)24-16-4-2-15(22)3-5-16/h1-8,13H,9-12H2,(H,24,27)

> <Ligand InChI Key>
CUIYTKFZPQMPQP-UHFFFAOYSA-N

> <BindingDB MonomerID>
50202018

> <BindingDB Ligand Name>
CHEMBL3941457

> <Target Name Assigned by Curator or DataSource>
DNA gyrase subunit B

> <Target Source Organism According to Curator or DataSource>


> <Ki (nM)>


> <IC50 (nM)>
 3100

> <Kd (nM)>


> <EC50 (nM)>


> <kon (M-1-s-1)>


> <koff (s-1)>


> <pH>


> <Temp C>


> <Curation/DataSource>
ChEMBL

> <Article DOI>
10.1016/j.ejmech.2016.06.042

> <PMID>
27371925

> <PubChem AID>


> <Patent Number>


> <Authors>
Jeankumar, VU; Reshma, RS; Vats, R; Janupally, R; Saxena, S; Yogeeswari, P; Sriram, D

> <Institution>
Birla Institute of Technology&amp; Science-Pilani

> <Link to Ligand in BindingDB>
http://www.bindingdb.org/bind/chemsearch/marvin/MolStructure.jsp?monomerid=50202018

> <Link to Ligand-Target Pair in BindingDB>
http://www.bindingdb.org/jsp/dbsearch/PrimarySearch_ki.jsp?energyterm=kJ/mole&tag=pol&polymerid=50006452&target=DNA+gyrase+subunit+B&column=ki&startPg=0&Increment=50&submit=Search

> <Link to Ligand-Target Pair in BindingDB>
http://www.bindingdb.org/jsp/dbsearch/PrimarySearch_ki.jsp?energyterm=kJ/mole&tag=r21&monomerid=50202018&enzyme=DNA+gyrase+subunit+B&column=ki&startPg=0&Increment=50&submit=Search

> <Ligand HET ID in PDB>


> <PDB ID(s) for Ligand-Target Complex>


> <PubChem CID>
21101789

> <PubChem SID>
375979577

> <ChEBI ID of Ligand>


> <ChEMBL ID of Ligand>


> <DrugBank ID of Ligand>


> <IUPHAR_GRAC ID of Ligand>


> <KEGG ID of Ligand>


> <ZINC ID of Ligand>


> <Number of Protein Chains in Target (>1 implies a multichain complex)>
1

> <BindingDB Target Chain Sequence>
MAAQKNNAPKEYGADSITILEGLEAVRKRPGMYIGSTGERGLHHLIWEVVDNAVDEAMAGFATRVDVKIHADGSVEVRDDGRGIPVEMHATGMPTIDVVMTQLHAGGKFDGETYAVSGGLHGVGVSVVNALSTRLEATVLRDGYEWFQYYDRSVPGKLKQGGETKETGTTIRFWADPEIFETTDYNFETVARRLQEMAFLNKGLTIELTDERVTAEEVVDDVVKDTAEAPKTADEKAAEATGPSKVKHRVFHYPGGLVDYVKHINRTKTPIQQSIIDFDGKGPGHEVEIAMQWNAGYSESVHTFANTINTHEGGTHEEGFRAALTSVVNRYAKDKKLLKDKDPNLTGDDIREGLAAVISVKVAEPQFEGQTKTKLGNTEVKSFVQKICNEQLQHWFEANPAEAKTVVNKAVSSAQARIAARKARELVRRKSATDIGGLPGKLADCRSTDPSKSELYVVEGDSAGGSAKSGRDSMFQAILPLRGKIINVEKARIDRVLKNTEVQSIITALGTGIHDEFDISKLRYHKIVLMADADVDGQHISTLLLTLLFRFMKPLVENGHIFLAQPPLYKLKWQRSEPEFAYSDRERDGLLEAGRAAGKKINVDDGIQRYKGLGEMDAKELWETTMDPSVRVLRQVTLDDAAAADELFSILMGEDVEARRSFITRNAKDVRFLDV

> <PDB ID(s) of Target Chain>
4BAE

> <UniProt (SwissProt) Recommended Name of Target Chain>
DNA gyrase subunit B

> <UniProt (SwissProt) Entry Name of Target Chain>
GYRB_MYCSM

> <UniProt (SwissProt) Primary ID of Target Chain>
P0C559

> <UniProt (SwissProt) Secondary ID(s) of Target Chain>
P48355,Q59555

> <UniProt (SwissProt) Alternative ID(s) of Target Chain>


> <UniProt (TrEMBL) Submitted Name of Target Chain>


> <UniProt (TrEMBL) Entry Name of Target Chain>


> <UniProt (TrEMBL) Primary ID of Target Chain>


> <UniProt (TrEMBL) Secondary ID(s) of Target Chain>


> <UniProt (TrEMBL) Alternative ID(s) of Target Chain>


$$$$

  Mrv0541 04171609262D          

 25 27  0  0  0  0            999 V2000
    0.7145   -0.4125    0.0000 C   0  0  0  0  0  0  0  0  0  0  0  0
    0.7145    0.4125    0.0000 C   0  0  0  0  0  0  0  0  0  0  0  0
    0.0000    0.8250    0.0000 C   0  0  0  0  0  0  0  0  0  0  0  0
   -0.7145    0.4125    0.0000 C   0  0  0  0  0  0  0  0  0  0  0  0
   -0.7145   -0.4125    0.0000 C   0  0  0  0  0  0  0  0  0  0  0  0
    0.0000   -0.8250    0.0000 C   0  0  0  0  0  0  0  0  0  0  0  0
   -1.4293   -0.8252    0.0000 C   0  0  0  0  0  0  0  0  0  0  0  0
   -2.1731   -0.4848    0.0000 S   0  0  0  0  0  0  0  0  0  0  0  0
   -2.7242   -1.0988    0.0000 C   0  0  0  0  0  0  0  0  0  0  0  0
   -2.3106   -1.8127    0.0000 C   0  0  0  0  0  0  0  0  0  0  0  0
   -1.5039   -1.6398    0.0000 C   0  0  0  0  0  0  0  0  0  0  0  0
   -2.6429   -2.5667    0.0000 C   0  0  0  0  0  0  0  0  0  0  0  0
   -2.2534   -3.0994    0.0000 O   0  0  0  0  0  0  0  0  0  0  0  0
   -3.2991   -2.6378    0.0000 N   0  0  0  0  0  0  0  0  0  0  0  0
   -3.5437   -1.0123    0.0000 N   0  0  0  0  0  0  0  0  0  0  0  0
   -3.8796   -0.2582    0.0000 C   0  0  0  0  0  0  0  0  0  0  0  0
   -4.7005   -0.1715    0.0000 N   0  0  0  0  0  0  0  0  0  0  0  0
   -3.4915    0.2757    0.0000 O   0  0  0  0  0  0  0  0  0  0  0  0
   -5.0363    0.5825    0.0000 C   0  0  0  0  0  0  0  0  0  0  0  0
   -5.8566    0.6703    0.0000 C   0  0  0  0  0  0  0  0  0  0  0  0
   -6.1908    1.4246    0.0000 C   0  0  0  0  0  0  0  0  0  0  0  0
   -5.7046    2.0912    0.0000 C   0  0  0  0  0  0  0  0  0  0  0  0
   -4.8843    2.0034    0.0000 C   0  0  0  0  0  0  0  0  0  0  0  0
   -4.5501    1.2491    0.0000 C   0  0  0  0  0  0  0  0  0  0  0  0
   -5.9719    2.6946    0.0000 Cl  0  0  0  0  0  0  0  0  0  0  0  0
  1  2  4  0  0  0  0
  2  3  4  0  0  0  0
  3  4  4  0  0  0  0
  4  5  4  0  0  0  0
  5  6  4  0  0  0  0
  6  1  4  0  0  0  0
  7  8  4  0  0  0  0
  8  9  4  0  0  0  0
  9 10  4  0  0  0  0
 10 11  4  0  0  0  0
 11  7  4  0  0  0  0
  5  7  1  0  0  0  0
 10 12  1  0  0  0  0
 12 13  2  0  0  0  0
 12 14  1  0  0  0  0
  9 15  1  0  0  0  0
 15 16  1  0  0  0  0
 16 17  1  0  0  0  0
 16 18  2  0  0  0  0
 17 19  1  0  0  0  0
 19 20  4  0  0  0  0
 20 21  4  0  0  0  0
 21 22  4  0  0  0  0
 22 23  4  0  0  0  0
 23 24  4  0  0  0  0
 24 19  4  0  0  0  0
 22 25  1  0  0  0  0
M  END
> <From> 
www.bindingDB.org

> <BindingDB Reactant_set_id>
50302315

> <Ligand InChI>
InChI=1S/C18H14ClN3O2S/c19-12-6-8-13(9-7-12)21-18(24)22-17-14(16(20)23)10-15(25-17)11-4-2-1-3-5-11/h1-10H,(H2,20,23)(H2,21,22,24)

> <Ligand InChI Key>
IPNNUMVOPDBBET-UHFFFAOYSA-N

> <BindingDB MonomerID>
50066081

> <BindingDB Ligand Name>
CHEMBL3402930

> <Target Name Assigned by Curator or DataSource>
DNA gyrase subunit B

> <Target Source Organism According to Curator or DataSource>


> <Ki (nM)>


> <IC50 (nM)>
 3142

> <Kd (nM)>


> <EC50 (nM)>


> <kon (M-1-s-1)>


> <koff (s-1)>


> <pH>


> <Temp C>
25.00

> <Curation/DataSource>
ChEMBL

> <Article DOI>
10.1016/j.bmc.2015.02.032

> <PMID>
25766629

> <PubChem AID>


> <Patent Number>


> <Authors>
Saxena, S; Samala, G; Renuka, J; Sridevi, JP; Yogeeswari, P; Sriram, D

> <Institution>
Birla Institute of Technology&amp; Science-Pilani

> <Link to Ligand in BindingDB>
http://www.bindingdb.org/bind/chemsearch/marvin/MolStructure.jsp?monomerid=50066081

> <Link to Ligand-Target Pair in BindingDB>
http://www.bindingdb.org/jsp/dbsearch/PrimarySearch_ki.jsp?energyterm=kJ/mole&tag=pol&polymerid=50006452&target=DNA+gyrase+subunit+B&column=ki&startPg=0&Increment=50&submit=Search

> <Link to Ligand-Target Pair in BindingDB>
http://www.bindingdb.org/jsp/dbsearch/PrimarySearch_ki.jsp?energyterm=kJ/mole&tag=r21&monomerid=50066081&enzyme=DNA+gyrase+subunit+B&column=ki&startPg=0&Increment=50&submit=Search

> <Ligand HET ID in PDB>


> <PDB ID(s) for Ligand-Target Complex>


> <PubChem CID>
118729458

> <PubChem SID>
313071608

> <ChEBI ID of Ligand>


> <ChEMBL ID of Ligand>


> <DrugBank ID of Ligand>


> <IUPHAR_GRAC ID of Ligand>


> <KEGG ID of Ligand>


> <ZINC ID of Ligand>


> <Number of Protein Chains in Target (>1 implies a multichain complex)>
1

> <BindingDB Target Chain Sequence>
MAAQKNNAPKEYGADSITILEGLEAVRKRPGMYIGSTGERGLHHLIWEVVDNAVDEAMAGFATRVDVKIHADGSVEVRDDGRGIPVEMHATGMPTIDVVMTQLHAGGKFDGETYAVSGGLHGVGVSVVNALSTRLEATVLRDGYEWFQYYDRSVPGKLKQGGETKETGTTIRFWADPEIFETTDYNFETVARRLQEMAFLNKGLTIELTDERVTAEEVVDDVVKDTAEAPKTADEKAAEATGPSKVKHRVFHYPGGLVDYVKHINRTKTPIQQSIIDFDGKGPGHEVEIAMQWNAGYSESVHTFANTINTHEGGTHEEGFRAALTSVVNRYAKDKKLLKDKDPNLTGDDIREGLAAVISVKVAEPQFEGQTKTKLGNTEVKSFVQKICNEQLQHWFEANPAEAKTVVNKAVSSAQARIAARKARELVRRKSATDIGGLPGKLADCRSTDPSKSELYVVEGDSAGGSAKSGRDSMFQAILPLRGKIINVEKARIDRVLKNTEVQSIITALGTGIHDEFDISKLRYHKIVLMADADVDGQHISTLLLTLLFRFMKPLVENGHIFLAQPPLYKLKWQRSEPEFAYSDRERDGLLEAGRAAGKKINVDDGIQRYKGLGEMDAKELWETTMDPSVRVLRQVTLDDAAAADELFSILMGEDVEARRSFITRNAKDVRFLDV

> <PDB ID(s) of Target Chain>
4BAE

> <UniProt (SwissProt) Recommended Name of Target Chain>
DNA gyrase subunit B

> <UniProt (SwissProt) Entry Name of Target Chain>
GYRB_MYCSM

> <UniProt (SwissProt) Primary ID of Target Chain>
P0C559

> <UniProt (SwissProt) Secondary ID(s) of Target Chain>
P48355,Q59555

> <UniProt (SwissProt) Alternative ID(s) of Target Chain>


> <UniProt (TrEMBL) Submitted Name of Target Chain>


> <UniProt (TrEMBL) Entry Name of Target Chain>


> <UniProt (TrEMBL) Primary ID of Target Chain>


> <UniProt (TrEMBL) Secondary ID(s) of Target Chain>


> <UniProt (TrEMBL) Alternative ID(s) of Target Chain>


$$$$

  Mrv0541 11171616332D          

 35 38  0  0  0  0            999 V2000
   12.2670   -6.8883    0.0000 O   0  0  0  0  0  0  0  0  0  0  0  0
   12.7519   -6.2209    0.0000 C   0  0  0  0  0  0  0  0  0  0  0  0
   12.2670   -5.5535    0.0000 C   0  0  0  0  0  0  0  0  0  0  0  0
   11.4824   -5.8084    0.0000 C   0  0  0  0  0  0  0  0  0  0  0  0
   11.4824   -6.6334    0.0000 C   0  0  0  0  0  0  0  0  0  0  0  0
   10.7679   -5.3959    0.0000 C   0  0  0  0  0  0  0  0  0  0  0  0
   10.0534   -5.8084    0.0000 C   0  0  0  0  0  0  0  0  0  0  0  0
   10.0534   -6.6334    0.0000 C   0  0  0  0  0  0  0  0  0  0  0  0
   10.7679   -7.0459    0.0000 C   0  0  0  0  0  0  0  0  0  0  0  0
   13.5769   -6.2209    0.0000 C   0  0  0  0  0  0  0  0  0  0  0  0
   13.9894   -6.9354    0.0000 O   0  0  0  0  0  0  0  0  0  0  0  0
   13.9894   -5.5065    0.0000 O   0  0  0  0  0  0  0  0  0  0  0  0
    9.3390   -5.3959    0.0000 N   0  0  0  0  0  0  0  0  0  0  0  0
    8.6245   -5.8084    0.0000 C   0  0  0  0  0  0  0  0  0  0  0  0
    7.9100   -5.3959    0.0000 C   0  0  0  0  0  0  0  0  0  0  0  0
    7.9100   -4.5709    0.0000 N   0  0  0  0  0  0  0  0  0  0  0  0
    8.6245   -4.1584    0.0000 C   0  0  0  0  0  0  0  0  0  0  0  0
    9.3390   -4.5709    0.0000 C   0  0  0  0  0  0  0  0  0  0  0  0
    7.1956   -4.1584    0.0000 C   0  0  0  0  0  0  0  0  0  0  0  0
    7.1956   -3.3334    0.0000 O   0  0  0  0  0  0  0  0  0  0  0  0
   14.8144   -5.5065    0.0000 C   0  0  0  0  0  0  0  0  0  0  0  0
   15.2269   -4.7920    0.0000 C   0  0  0  0  0  0  0  0  0  0  0  0
    6.4782   -4.5670    0.0000 C   0  0  0  0  0  0  0  0  0  0  0  0
    5.7638   -4.1522    0.0000 C   0  0  0  0  0  0  0  0  0  0  0  0
    5.0514   -4.5612    0.0000 C   0  0  0  0  0  0  0  0  0  0  0  0
    5.0472   -5.3865    0.0000 N   0  0  0  0  0  0  0  0  0  0  0  0
    5.7616   -5.8012    0.0000 C   0  0  0  0  0  0  0  0  0  0  0  0
    6.4801   -5.3907    0.0000 C   0  0  0  0  0  0  0  0  0  0  0  0
    4.3312   -5.7964    0.0000 C   0  0  0  0  0  0  0  0  0  0  0  0
    3.6183   -5.3812    0.0000 O   0  0  0  0  0  0  0  0  0  0  0  0
    4.3281   -6.6214    0.0000 O   0  0  0  0  0  0  0  0  0  0  0  0
    3.6214   -4.5562    0.0000 C   0  0  0  0  0  0  0  0  0  0  0  0
    2.9085   -4.1409    0.0000 C   0  0  0  0  0  0  0  0  0  0  0  0
    4.3375   -4.1464    0.0000 C   0  0  0  0  0  0  0  0  0  0  0  0
    3.6167   -3.7292    0.0000 C   0  0  0  0  0  0  0  0  0  0  0  0
  1  2  4  0  0  0  0
  2  3  4  0  0  0  0
  3  4  4  0  0  0  0
  4  5  4  0  0  0  0
  1  5  4  0  0  0  0
  6  7  4  0  0  0  0
  7  8  4  0  0  0  0
  8  9  4  0  0  0  0
  5  9  4  0  0  0  0
  4  6  4  0  0  0  0
 10 11  2  0  0  0  0
 10 12  1  0  0  0  0
  2 10  1  0  0  0  0
 13 14  1  0  0  0  0
 14 15  1  0  0  0  0
 15 16  1  0  0  0  0
 16 17  1  0  0  0  0
 17 18  1  0  0  0  0
 13 18  1  0  0  0  0
 19 20  2  0  0  0  0
 16 19  1  0  0  0  0
  7 13  1  0  0  0  0
 21 22  1  0  0  0  0
 12 21  1  0  0  0  0
 23 24  1  0  0  0  0
 23 28  1  0  0  0  0
 24 25  1  0  0  0  0
 25 26  1  0  0  0  0
 26 27  1  0  0  0  0
 27 28  1  0  0  0  0
 19 23  1  0  0  0  0
 26 29  1  0  0  0  0
 29 30  1  0  0  0  0
 29 31  2  0  0  0  0
 30 32  1  0  0  0  0
 32 33  1  0  0  0  0
 32 34  1  0  0  0  0
 32 35  1  0  0  0  0
M  END
> <From> 
www.bindingDB.org

> <BindingDB Reactant_set_id>
50369925

> <Ligand InChI>
InChI=1S/C26H35N3O6/c1-5-33-24(31)22-17-19-16-20(6-7-21(19)34-22)27-12-14-28(15-13-27)23(30)18-8-10-29(11-9-18)25(32)35-26(2,3)4/h6-7,16-18H,5,8-15H2,1-4H3

> <Ligand InChI Key>
JTJCZFFHKOPEJG-UHFFFAOYSA-N

> <BindingDB MonomerID>
50100647

> <BindingDB Ligand Name>
CHEMBL3323168

> <Target Name Assigned by Curator or DataSource>
DNA gyrase subunit B

> <Target Source Organism According to Curator or DataSource>


> <Ki (nM)>


> <IC50 (nM)>
 3200

> <Kd (nM)>


> <EC50 (nM)>


> <kon (M-1-s-1)>


> <koff (s-1)>


> <pH>


> <Temp C>


> <Curation/DataSource>
ChEMBL

> <Article DOI>
10.1016/j.bmc.2014.06.041

> <PMID>
25129171

> <PubChem AID>


> <Patent Number>


> <Authors>
Renuka, J; Reddy, KI; Srihari, K; Jeankumar, VU; Shravan, M; Sridevi, JP; Yogeeswari, P; Babu, KS; Sriram, D

> <Institution>
Institute of Technology&amp; Science-Pilani

> <Link to Ligand in BindingDB>
http://www.bindingdb.org/bind/chemsearch/marvin/MolStructure.jsp?monomerid=50100647

> <Link to Ligand-Target Pair in BindingDB>
http://www.bindingdb.org/jsp/dbsearch/PrimarySearch_ki.jsp?energyterm=kJ/mole&tag=pol&polymerid=50006452&target=DNA+gyrase+subunit+B&column=ki&startPg=0&Increment=50&submit=Search

> <Link to Ligand-Target Pair in BindingDB>
http://www.bindingdb.org/jsp/dbsearch/PrimarySearch_ki.jsp?energyterm=kJ/mole&tag=r21&monomerid=50100647&enzyme=DNA+gyrase+subunit+B&column=ki&startPg=0&Increment=50&submit=Search

> <Ligand HET ID in PDB>


> <PDB ID(s) for Ligand-Target Complex>


> <PubChem CID>
101902801

> <PubChem SID>
318490756

> <ChEBI ID of Ligand>


> <ChEMBL ID of Ligand>


> <DrugBank ID of Ligand>


> <IUPHAR_GRAC ID of Ligand>


> <KEGG ID of Ligand>


> <ZINC ID of Ligand>


> <Number of Protein Chains in Target (>1 implies a multichain complex)>
1

> <BindingDB Target Chain Sequence>
MAAQKNNAPKEYGADSITILEGLEAVRKRPGMYIGSTGERGLHHLIWEVVDNAVDEAMAGFATRVDVKIHADGSVEVRDDGRGIPVEMHATGMPTIDVVMTQLHAGGKFDGETYAVSGGLHGVGVSVVNALSTRLEATVLRDGYEWFQYYDRSVPGKLKQGGETKETGTTIRFWADPEIFETTDYNFETVARRLQEMAFLNKGLTIELTDERVTAEEVVDDVVKDTAEAPKTADEKAAEATGPSKVKHRVFHYPGGLVDYVKHINRTKTPIQQSIIDFDGKGPGHEVEIAMQWNAGYSESVHTFANTINTHEGGTHEEGFRAALTSVVNRYAKDKKLLKDKDPNLTGDDIREGLAAVISVKVAEPQFEGQTKTKLGNTEVKSFVQKICNEQLQHWFEANPAEAKTVVNKAVSSAQARIAARKARELVRRKSATDIGGLPGKLADCRSTDPSKSELYVVEGDSAGGSAKSGRDSMFQAILPLRGKIINVEKARIDRVLKNTEVQSIITALGTGIHDEFDISKLRYHKIVLMADADVDGQHISTLLLTLLFRFMKPLVENGHIFLAQPPLYKLKWQRSEPEFAYSDRERDGLLEAGRAAGKKINVDDGIQRYKGLGEMDAKELWETTMDPSVRVLRQVTLDDAAAADELFSILMGEDVEARRSFITRNAKDVRFLDV

> <PDB ID(s) of Target Chain>
4BAE

> <UniProt (SwissProt) Recommended Name of Target Chain>
DNA gyrase subunit B

> <UniProt (SwissProt) Entry Name of Target Chain>
GYRB_MYCSM

> <UniProt (SwissProt) Primary ID of Target Chain>
P0C559

> <UniProt (SwissProt) Secondary ID(s) of Target Chain>
P48355,Q59555

> <UniProt (SwissProt) Alternative ID(s) of Target Chain>


> <UniProt (TrEMBL) Submitted Name of Target Chain>


> <UniProt (TrEMBL) Entry Name of Target Chain>


> <UniProt (TrEMBL) Primary ID of Target Chain>


> <UniProt (TrEMBL) Secondary ID(s) of Target Chain>


> <UniProt (TrEMBL) Alternative ID(s) of Target Chain>


$$$$

  SciTegic12131614182D

 22 25  0  0  0  0            999 V2000
   -1.0028    1.5132    0.0000 N   0  0
   -2.3155    0.7475    0.0000 C   0  0
   -2.3155   -0.7475    0.0000 C   0  0
   -1.0028   -1.5132    0.0000 C   0  0
    0.2917    0.7475    0.0000 C   0  0
    0.2917   -0.7475    0.0000 C   0  0
    1.7138   -1.2033    0.0000 C   0  0
    2.5889    0.0182    0.0000 N   0  0
    1.7138    1.2033    0.0000 N   0  0
   -0.9991   -2.7132    0.0000 C   0  0
    2.1852   -2.6281    0.0000 C   0  0
   -3.3560    1.3452    0.0000 O   0  0
    3.5643   -3.1717    0.0000 C   0  0
    3.4539   -4.6676    0.0000 N   0  0
    1.9971   -5.0249    0.0000 C   0  0
    1.2071   -3.7498    0.0000 S   0  0
    1.4296   -6.4142    0.0000 C   0  0
    2.2547   -7.6609    0.0000 C   0  0
    1.5846   -9.0029    0.0000 C   0  0
    0.0873   -9.0936    0.0000 C   0  0
   -0.7398   -7.8422    0.0000 N   0  0
   -0.0697   -6.5002    0.0000 C   0  0
  6  4  1  0
  5  1  1  0
  1  2  1  0
  2  3  1  0
  3  4  2  0
  5  6  2  0
  6  7  1  0
  7  8  2  0
  8  9  1  0
  9  5  1  0
  4 10  1  0
  7 11  1  0
  2 12  2  0
 11 13  2  0
 13 14  1  0
 14 15  2  0
 15 16  1  0
 16 11  1  0
 17 18  2  0
 18 19  1  0
 19 20  2  0
 20 21  1  0
 21 22  2  0
 22 17  1  0
 15 17  1  0
M  END
> <From> 
www.bindingDB.org

> <BindingDB Reactant_set_id>
50498691

> <Ligand InChI>
InChI=1S/C15H11N5OS/c1-8-5-11(21)18-14-12(8)13(19-20-14)10-7-17-15(22-10)9-3-2-4-16-6-9/h2-7H,1H3,(H2,18,19,20,21)

> <Ligand InChI Key>
WLVDKGGIDBZCCK-UHFFFAOYSA-N

> <BindingDB MonomerID>
50143185

> <BindingDB Ligand Name>
CHEMBL3759272

> <Target Name Assigned by Curator or DataSource>
DNA gyrase

> <Target Source Organism According to Curator or DataSource>
Staphylococcus aureus

> <Ki (nM)>


> <IC50 (nM)>
 3248

> <Kd (nM)>


> <EC50 (nM)>


> <kon (M-1-s-1)>


> <koff (s-1)>


> <pH>


> <Temp C>


> <Curation/DataSource>
ChEMBL

> <Article DOI>
10.1021/acsmedchemlett.5b00368

> <PMID>
27096044

> <PubChem AID>


> <Patent Number>


> <Authors>
Cross, JB; Zhang, J; Yang, Q; Mesleh, MF; Romero, JA; Wang, B; Bevan, D; Poutsiaka, KM; Epie, F; Moy, T; Daniel, A; Shotwell, J; Chamberlain, B; Carter, N; Andersen, O; Barker, J; Ryan, MD; Metcalf, CA; Silverman, J; Nguyen, K; Lippa, B; Dolle, RE

> <Institution>
Cubist Pharmaceuticals, Inc.

> <Link to Ligand in BindingDB>
http://www.bindingdb.org/bind/chemsearch/marvin/MolStructure.jsp?monomerid=50143185

> <Link to Ligand-Target Pair in BindingDB>
http://www.bindingdb.org/jsp/dbsearch/PrimarySearch_ki.jsp?energyterm=kJ/mole&tag=pol&polymerid=2626&target=DNA+gyrase&column=ki&startPg=0&Increment=50&submit=Search

> <Link to Ligand-Target Pair in BindingDB>
http://www.bindingdb.org/jsp/dbsearch/PrimarySearch_ki.jsp?energyterm=kJ/mole&tag=r21&monomerid=50143185&enzyme=DNA+gyrase&column=ki&startPg=0&Increment=50&submit=Search

> <Ligand HET ID in PDB>


> <PDB ID(s) for Ligand-Target Complex>


> <PubChem CID>
127026757

> <PubChem SID>
336952904

> <ChEBI ID of Ligand>


> <ChEMBL ID of Ligand>


> <DrugBank ID of Ligand>


> <IUPHAR_GRAC ID of Ligand>


> <KEGG ID of Ligand>


> <ZINC ID of Ligand>


> <Number of Protein Chains in Target (>1 implies a multichain complex)>
1

> <BindingDB Target Chain Sequence>
MVTALSDVNNTDNYGAGQIQVLEGLEAVRKRPGMYIGSTSERGLHHLVWEIVDNSIDEALAGYANQIEVVIEKDNWIKVTDNGRGIPVDIQEKMGRPAVEVILTVLHAGGKFGGGGYKVSGGLHGVGSSVVNALSQDLEVYVHRNETIYHQAYKKGVPQFDLKEVGTTDKTGTVIRFKADGEIFTETTVYNYETLQQRIRELAFLNKGIQITLRDERDEENVREDSYHYEGGIKSYVELLNENKEPIHDEPIYIHQSKDDIEVEIAIQYNSGYATNLLTYANNIHTYEGGTHEDGFKRALTRVLNSYGLSSKIMKEEKDRLSGEDTREGMTAIISIKHGDPQFEGQTKTKLGNSEVRQVVDKLFSEHFERFLYENPQVARTVVEKGIMAARARVAAKKAREVTRRKSALDVASLPGKLADCSSKSPEECEIFLVEGDSAGGSTKSGRDSRTQAILPLRGKILNVEKARLDRILNNNEIRQMITAFGTGIGGDFDLAKARYHKIVIMTDADVDGAHIRTLLLTFFYRFMRPLIEAGYVYIAQPPLYKLTQGKQKYYVYNDRELDKLKSELNPTPKWSIARYKGLGEMNADQLWETTMNPEHRALLQVKLEDAIEADQTFEMLMGDVVENRRQFIEDNAVYANLDF

> <PDB ID(s) of Target Chain>


> <UniProt (SwissProt) Recommended Name of Target Chain>
DNA gyrase subunit B

> <UniProt (SwissProt) Entry Name of Target Chain>
GYRB_STAAU

> <UniProt (SwissProt) Primary ID of Target Chain>
P0A0K8

> <UniProt (SwissProt) Secondary ID(s) of Target Chain>
P20832

> <UniProt (SwissProt) Alternative ID(s) of Target Chain>


> <UniProt (TrEMBL) Submitted Name of Target Chain>


> <UniProt (TrEMBL) Entry Name of Target Chain>


> <UniProt (TrEMBL) Primary ID of Target Chain>


> <UniProt (TrEMBL) Secondary ID(s) of Target Chain>


> <UniProt (TrEMBL) Alternative ID(s) of Target Chain>


$$$$

  SciTegic04201612532D

 35 38  0  0  0  0            999 V2000
   -1.2964    1.4973    0.0000 N   0  0
   -2.6111    0.7486    0.0000 C   0  0
   -2.6111   -0.7486    0.0000 C   0  0
   -1.2964   -1.4973    0.0000 C   0  0
    0.0000   -0.7486    0.0000 C   0  0
    1.2964   -1.4973    0.0000 C   0  0
    2.5929   -0.7486    0.0000 C   0  0
    2.5929    0.7486    0.0000 C   0  0
    1.2964    1.4973    0.0000 C   0  0
    0.0000    0.7486    0.0000 C   0  0
   -3.9122   -1.4966    0.0000 C   0  0
   -3.9138   -2.4966    0.0000 O   0  0
   -5.2109   -0.7445    0.0000 N   0  0
   -1.2907   -2.9981    0.0000 N   0  0
   -2.5870   -3.7544    0.0000 C   0  0
   -2.5835   -5.2544    0.0000 C   0  0
   -3.8807   -6.0076    0.0000 C   0  0
   -5.1815   -5.2608    0.0000 C   0  0
   -5.1852   -3.7608    0.0000 C   0  0
   -3.8880   -3.0076    0.0000 C   0  0
   -6.4810   -6.0117    0.0000 N   0  0
   -7.7815   -5.2626    0.0000 C   0  0
   -9.0810   -6.0135    0.0000 C   0  0
  -10.3815   -5.2644    0.0000 C   0  0
  -14.2755   -7.5217    0.0000 N   0  0
  -14.2791   -6.0217    0.0000 C   0  0
  -12.9819   -5.2686    0.0000 C   0  0
  -11.6810   -6.0154    0.0000 N   0  0
  -11.6774   -7.5154    0.0000 C   0  0
  -12.9746   -8.2686    0.0000 C   0  0
   -6.2513   -1.3425    0.0000 N   0  0
  -15.5719   -8.2779    0.0000 C   0  0
  -15.5672   -9.4779    0.0000 C   0  0
    3.8942   -1.4964    0.0000 O   0  0
    4.9326   -0.8949    0.0000 C   0  0
  1  2  2  0
  2  3  1  0
  3  4  2  0
  4  5  1  0
  5  6  2  0
  6  7  1  0
  7  8  2  0
  8  9  1  0
  9 10  2  0
  1 10  1  0
  5 10  1  0
 11 12  2  0
 11 13  1  0
  3 11  1  0
 15 16  1  0
 16 17  2  0
 17 18  1  0
 18 19  2  0
 19 20  1  0
 15 20  2  0
 22 23  1  0
 23 24  1  0
 21 22  1  0
 25 26  1  0
 26 27  1  0
 27 28  1  0
 28 29  1  0
 29 30  1  0
 25 30  1  0
 24 28  1  0
 18 21  1  0
 14 15  1  0
  4 14  1  0
 13 31  1  0
 25 32  1  0
 32 33  1  0
 34 35  1  0
  7 34  1  0
M  END
> <From> 
www.bindingDB.org

> <BindingDB Reactant_set_id>
50426765

> <Ligand InChI>
InChI=1S/C26H35N7O2/c1-3-32-13-15-33(16-14-32)12-4-11-28-19-5-7-20(8-6-19)30-25-22-17-21(35-2)9-10-24(22)29-18-23(25)26(34)31-27/h5-10,17-18,28H,3-4,11-16,27H2,1-2H3,(H,29,30)(H,31,34)

> <Ligand InChI Key>
UCVUNZDFVKPWSR-UHFFFAOYSA-N

> <BindingDB MonomerID>
50126392

> <BindingDB Ligand Name>
CHEMBL3628452

> <Target Name Assigned by Curator or DataSource>
DNA gyrase subunit B

> <Target Source Organism According to Curator or DataSource>


> <Ki (nM)>


> <IC50 (nM)>
 3260

> <Kd (nM)>


> <EC50 (nM)>


> <kon (M-1-s-1)>


> <koff (s-1)>


> <pH>


> <Temp C>


> <Curation/DataSource>
ChEMBL

> <Article DOI>
10.1016/j.ejmech.2015.06.032

> <PMID>
26318054

> <PubChem AID>


> <Patent Number>


> <Authors>
Medapi, B; Suryadevara, P; Renuka, J; Sridevi, JP; Yogeeswari, P; Sriram, D

> <Institution>
Birla Institute of Technology&amp;Science

> <Link to Ligand in BindingDB>
http://www.bindingdb.org/bind/chemsearch/marvin/MolStructure.jsp?monomerid=50126392

> <Link to Ligand-Target Pair in BindingDB>
http://www.bindingdb.org/jsp/dbsearch/PrimarySearch_ki.jsp?energyterm=kJ/mole&tag=pol&polymerid=50006452&target=DNA+gyrase+subunit+B&column=ki&startPg=0&Increment=50&submit=Search

> <Link to Ligand-Target Pair in BindingDB>
http://www.bindingdb.org/jsp/dbsearch/PrimarySearch_ki.jsp?energyterm=kJ/mole&tag=r21&monomerid=50126392&enzyme=DNA+gyrase+subunit+B&column=ki&startPg=0&Increment=50&submit=Search

> <Ligand HET ID in PDB>


> <PDB ID(s) for Ligand-Target Complex>


> <PubChem CID>
122193466

> <PubChem SID>
104018468

> <ChEBI ID of Ligand>


> <ChEMBL ID of Ligand>
CHEMBL30879

> <DrugBank ID of Ligand>


> <IUPHAR_GRAC ID of Ligand>


> <KEGG ID of Ligand>


> <ZINC ID of Ligand>
ZINC29208623

> <Number of Protein Chains in Target (>1 implies a multichain complex)>
1

> <BindingDB Target Chain Sequence>
MAAQKNNAPKEYGADSITILEGLEAVRKRPGMYIGSTGERGLHHLIWEVVDNAVDEAMAGFATRVDVKIHADGSVEVRDDGRGIPVEMHATGMPTIDVVMTQLHAGGKFDGETYAVSGGLHGVGVSVVNALSTRLEATVLRDGYEWFQYYDRSVPGKLKQGGETKETGTTIRFWADPEIFETTDYNFETVARRLQEMAFLNKGLTIELTDERVTAEEVVDDVVKDTAEAPKTADEKAAEATGPSKVKHRVFHYPGGLVDYVKHINRTKTPIQQSIIDFDGKGPGHEVEIAMQWNAGYSESVHTFANTINTHEGGTHEEGFRAALTSVVNRYAKDKKLLKDKDPNLTGDDIREGLAAVISVKVAEPQFEGQTKTKLGNTEVKSFVQKICNEQLQHWFEANPAEAKTVVNKAVSSAQARIAARKARELVRRKSATDIGGLPGKLADCRSTDPSKSELYVVEGDSAGGSAKSGRDSMFQAILPLRGKIINVEKARIDRVLKNTEVQSIITALGTGIHDEFDISKLRYHKIVLMADADVDGQHISTLLLTLLFRFMKPLVENGHIFLAQPPLYKLKWQRSEPEFAYSDRERDGLLEAGRAAGKKINVDDGIQRYKGLGEMDAKELWETTMDPSVRVLRQVTLDDAAAADELFSILMGEDVEARRSFITRNAKDVRFLDV

> <PDB ID(s) of Target Chain>
4BAE

> <UniProt (SwissProt) Recommended Name of Target Chain>
DNA gyrase subunit B

> <UniProt (SwissProt) Entry Name of Target Chain>
GYRB_MYCSM

> <UniProt (SwissProt) Primary ID of Target Chain>
P0C559

> <UniProt (SwissProt) Secondary ID(s) of Target Chain>
P48355,Q59555

> <UniProt (SwissProt) Alternative ID(s) of Target Chain>


> <UniProt (TrEMBL) Submitted Name of Target Chain>


> <UniProt (TrEMBL) Entry Name of Target Chain>


> <UniProt (TrEMBL) Primary ID of Target Chain>


> <UniProt (TrEMBL) Secondary ID(s) of Target Chain>


> <UniProt (TrEMBL) Alternative ID(s) of Target Chain>


$$$$

  SciTegic12201612272D

 27 30  0  0  0  0            999 V2000
    0.2917   -0.7475    0.0000 C   0  0
    0.2917    0.7475    0.0000 C   0  0
   -1.0028    1.5132    0.0000 C   0  0
   -2.3155    0.7475    0.0000 C   0  0
   -2.3155   -0.7475    0.0000 C   0  0
   -1.0028   -1.5132    0.0000 N   0  0
    2.5889    0.0182    0.0000 N   0  0
    1.7138   -1.2033    0.0000 N   0  0
    1.7138    1.2033    0.0000 C   0  0
   -3.6187    1.4919    0.0000 C   0  0
   -4.6549    0.8867    0.0000 O   0  0
   -3.6267    2.9927    0.0000 N   0  0
    3.6243    2.9682    0.0000 S   0  0
    3.7308    4.4645    0.0000 C   0  0
    2.3406    5.0280    0.0000 N   0  0
    1.3751    3.8801    0.0000 C   0  0
    2.1749    2.6315    0.0000 C   0  0
    6.3724    4.6552    0.0000 C   0  0
    5.0044    5.2582    0.0000 C   0  0
    4.8363    6.7505    0.0000 C   0  0
    6.0460    7.6374    0.0000 C   0  0
    7.4189    7.0332    0.0000 C   0  0
    7.5821    5.5421    0.0000 N   0  0
   -3.3560   -1.3452    0.0000 O   0  0
   -4.6688    3.5878    0.0000 C   0  0
   -0.9971   -3.0138    0.0000 C   0  0
   -2.0337   -3.6184    0.0000 C   0  0
  1  2  2  0
  2  3  1  0
  3  4  2  0
  4  5  1  0
  5  6  1  0
  1  6  1  0
  7  8  1  0
  7  9  2  0
  1  8  1  0
  2  9  1  0
 10 11  2  0
 10 12  1  0
  4 10  1  0
 13 14  1  0
 14 15  2  0
 15 16  1  0
 16 17  2  0
 13 17  1  0
 18 19  1  0
 19 20  2  0
 20 21  1  0
 21 22  2  0
 22 23  1  0
 18 23  2  0
 14 19  1  0
  9 17  1  0
  5 24  2  0
 12 25  1  0
 26 27  1  0
  6 26  1  0
M  END
> <From> 
www.bindingDB.org

> <BindingDB Reactant_set_id>
50498692

> <Ligand InChI>
InChI=1S/C18H16N6O2S/c1-3-24-15-11(7-12(18(24)26)16(25)19-2)14(22-23-15)13-9-21-17(27-13)10-5-4-6-20-8-10/h4-9H,3H2,1-2H3,(H,19,25)(H,22,23)

> <Ligand InChI Key>
ALQJWUAKEBZSIJ-UHFFFAOYSA-N

> <BindingDB MonomerID>
50173880

> <BindingDB Ligand Name>
CHEMBL3810227

> <Target Name Assigned by Curator or DataSource>
DNA gyrase

> <Target Source Organism According to Curator or DataSource>
Staphylococcus aureus

> <Ki (nM)>


> <IC50 (nM)>
 3349

> <Kd (nM)>


> <EC50 (nM)>


> <kon (M-1-s-1)>


> <koff (s-1)>


> <pH>


> <Temp C>


> <Curation/DataSource>
ChEMBL

> <Article DOI>
10.1021/acsmedchemlett.5b00368

> <PMID>
27096044

> <PubChem AID>


> <Patent Number>


> <Authors>
Cross, JB; Zhang, J; Yang, Q; Mesleh, MF; Romero, JA; Wang, B; Bevan, D; Poutsiaka, KM; Epie, F; Moy, T; Daniel, A; Shotwell, J; Chamberlain, B; Carter, N; Andersen, O; Barker, J; Ryan, MD; Metcalf, CA; Silverman, J; Nguyen, K; Lippa, B; Dolle, RE

> <Institution>
Cubist Pharmaceuticals, Inc.

> <Link to Ligand in BindingDB>
http://www.bindingdb.org/bind/chemsearch/marvin/MolStructure.jsp?monomerid=50173880

> <Link to Ligand-Target Pair in BindingDB>
http://www.bindingdb.org/jsp/dbsearch/PrimarySearch_ki.jsp?energyterm=kJ/mole&tag=pol&polymerid=2626&target=DNA+gyrase&column=ki&startPg=0&Increment=50&submit=Search

> <Link to Ligand-Target Pair in BindingDB>
http://www.bindingdb.org/jsp/dbsearch/PrimarySearch_ki.jsp?energyterm=kJ/mole&tag=r21&monomerid=50173880&enzyme=DNA+gyrase&column=ki&startPg=0&Increment=50&submit=Search

> <Ligand HET ID in PDB>


> <PDB ID(s) for Ligand-Target Complex>


> <PubChem CID>
127045552

> <PubChem SID>
346548899

> <ChEBI ID of Ligand>


> <ChEMBL ID of Ligand>


> <DrugBank ID of Ligand>


> <IUPHAR_GRAC ID of Ligand>


> <KEGG ID of Ligand>


> <ZINC ID of Ligand>


> <Number of Protein Chains in Target (>1 implies a multichain complex)>
1

> <BindingDB Target Chain Sequence>
MVTALSDVNNTDNYGAGQIQVLEGLEAVRKRPGMYIGSTSERGLHHLVWEIVDNSIDEALAGYANQIEVVIEKDNWIKVTDNGRGIPVDIQEKMGRPAVEVILTVLHAGGKFGGGGYKVSGGLHGVGSSVVNALSQDLEVYVHRNETIYHQAYKKGVPQFDLKEVGTTDKTGTVIRFKADGEIFTETTVYNYETLQQRIRELAFLNKGIQITLRDERDEENVREDSYHYEGGIKSYVELLNENKEPIHDEPIYIHQSKDDIEVEIAIQYNSGYATNLLTYANNIHTYEGGTHEDGFKRALTRVLNSYGLSSKIMKEEKDRLSGEDTREGMTAIISIKHGDPQFEGQTKTKLGNSEVRQVVDKLFSEHFERFLYENPQVARTVVEKGIMAARARVAAKKAREVTRRKSALDVASLPGKLADCSSKSPEECEIFLVEGDSAGGSTKSGRDSRTQAILPLRGKILNVEKARLDRILNNNEIRQMITAFGTGIGGDFDLAKARYHKIVIMTDADVDGAHIRTLLLTFFYRFMRPLIEAGYVYIAQPPLYKLTQGKQKYYVYNDRELDKLKSELNPTPKWSIARYKGLGEMNADQLWETTMNPEHRALLQVKLEDAIEADQTFEMLMGDVVENRRQFIEDNAVYANLDF

> <PDB ID(s) of Target Chain>


> <UniProt (SwissProt) Recommended Name of Target Chain>
DNA gyrase subunit B

> <UniProt (SwissProt) Entry Name of Target Chain>
GYRB_STAAU

> <UniProt (SwissProt) Primary ID of Target Chain>
P0A0K8

> <UniProt (SwissProt) Secondary ID(s) of Target Chain>
P20832

> <UniProt (SwissProt) Alternative ID(s) of Target Chain>


> <UniProt (TrEMBL) Submitted Name of Target Chain>


> <UniProt (TrEMBL) Entry Name of Target Chain>


> <UniProt (TrEMBL) Primary ID of Target Chain>


> <UniProt (TrEMBL) Secondary ID(s) of Target Chain>


> <UniProt (TrEMBL) Alternative ID(s) of Target Chain>


$$$$

  SciTegic09261414462D

 21 22  0  0  0  0            999 V2000
    4.6706  -14.0325    0.0000 C   0  0
    4.6695  -14.8521    0.0000 C   0  0
    5.3775  -15.2610    0.0000 C   0  0
    6.0872  -14.8516    0.0000 C   0  0
    6.0843  -14.0289    0.0000 C   0  0
    5.3757  -13.6237    0.0000 N   0  0
    3.9628  -13.6241    0.0000 N   0  0
    3.2552  -14.0329    0.0000 C   0  0
    2.5474  -13.6245    0.0000 N   0  0
    3.2554  -14.8501    0.0000 O   0  0
    1.8398  -14.0332    0.0000 C   0  0
    1.1320  -13.6248    0.0000 C   0  0
    6.7920  -15.2583    0.0000 C   0  0
    6.7920  -16.0766    0.0000 C   0  0
    7.4995  -16.4840    0.0000 C   0  0
    8.2075  -16.0743    0.0000 C   0  0
    8.2036  -15.2529    0.0000 C   0  0
    7.4955  -14.8492    0.0000 C   0  0
    8.9092  -14.8407    0.0000 C   0  0
    9.6190  -15.2456    0.0000 O   0  0
    8.9050  -14.0235    0.0000 O   0  0
  1  2  2  0
  2  3  1  0
  3  4  2  0
  4  5  1  0
  5  6  2  0
  6  1  1  0
  1  7  1  0
  7  8  1  0
  8  9  1  0
  8 10  2  0
  9 11  1  0
 11 12  1  0
 13 14  2  0
 14 15  1  0
 15 16  2  0
 16 17  1  0
 17 18  2  0
 18 13  1  0
  4 13  1  0
 17 19  1  0
 19 20  1  0
 19 21  2  0
M  END
> <From> 
www.bindingDB.org

> <BindingDB Reactant_set_id>
50083256

> <Ligand InChI>
InChI=1S/C15H15N3O3/c1-2-16-15(21)18-13-7-6-12(9-17-13)10-4-3-5-11(8-10)14(19)20/h3-9H,2H2,1H3,(H,19,20)(H2,16,17,18,21)

> <Ligand InChI Key>
KKBKOTSSUJZSAO-UHFFFAOYSA-N

> <BindingDB MonomerID>
50006550

> <BindingDB Ligand Name>
CHEMBL3235072

> <Target Name Assigned by Curator or DataSource>
DNA Gyrase Subunit B

> <Target Source Organism According to Curator or DataSource>
Staphylococcus aureus

> <Ki (nM)>


> <IC50 (nM)>
 3400

> <Kd (nM)>


> <EC50 (nM)>


> <kon (M-1-s-1)>


> <koff (s-1)>


> <pH>


> <Temp C>


> <Curation/DataSource>
ChEMBL

> <Article DOI>
10.1021/jm401208b

> <PMID>
24098982

> <PubChem AID>


> <Patent Number>


> <Authors>
Basarab, GS; Basarab, GS; Boriack-Sjodin, PA; Boriack-Sjodin, PA; Illingworth, R; Illingworth, R; Manchester, JI; Manchester, JI; Dangel, B; Dangel, B; Sriram, S; Sriram, S

> <Institution>
AstraZeneca R&amp;D Boston

> <Link to Ligand in BindingDB>
http://www.bindingdb.org/bind/chemsearch/marvin/MolStructure.jsp?monomerid=50006550

> <Link to Ligand-Target Pair in BindingDB>
http://www.bindingdb.org/jsp/dbsearch/PrimarySearch_ki.jsp?energyterm=kJ/mole&tag=pol&polymerid=2626&target=DNA+Gyrase+Subunit+B&column=ki&startPg=0&Increment=50&submit=Search

> <Link to Ligand-Target Pair in BindingDB>
http://www.bindingdb.org/jsp/dbsearch/PrimarySearch_ki.jsp?energyterm=kJ/mole&tag=r21&monomerid=50006550&enzyme=DNA+Gyrase+Subunit+B&column=ki&startPg=0&Increment=50&submit=Search

> <Ligand HET ID in PDB>


> <PDB ID(s) for Ligand-Target Complex>


> <PubChem CID>
59208413

> <PubChem SID>
103919951

> <ChEBI ID of Ligand>


> <ChEMBL ID of Ligand>
CHEMBL3235072

> <DrugBank ID of Ligand>


> <IUPHAR_GRAC ID of Ligand>


> <KEGG ID of Ligand>


> <ZINC ID of Ligand>
ZINC26284566

> <Number of Protein Chains in Target (>1 implies a multichain complex)>
1

> <BindingDB Target Chain Sequence>
MVTALSDVNNTDNYGAGQIQVLEGLEAVRKRPGMYIGSTSERGLHHLVWEIVDNSIDEALAGYANQIEVVIEKDNWIKVTDNGRGIPVDIQEKMGRPAVEVILTVLHAGGKFGGGGYKVSGGLHGVGSSVVNALSQDLEVYVHRNETIYHQAYKKGVPQFDLKEVGTTDKTGTVIRFKADGEIFTETTVYNYETLQQRIRELAFLNKGIQITLRDERDEENVREDSYHYEGGIKSYVELLNENKEPIHDEPIYIHQSKDDIEVEIAIQYNSGYATNLLTYANNIHTYEGGTHEDGFKRALTRVLNSYGLSSKIMKEEKDRLSGEDTREGMTAIISIKHGDPQFEGQTKTKLGNSEVRQVVDKLFSEHFERFLYENPQVARTVVEKGIMAARARVAAKKAREVTRRKSALDVASLPGKLADCSSKSPEECEIFLVEGDSAGGSTKSGRDSRTQAILPLRGKILNVEKARLDRILNNNEIRQMITAFGTGIGGDFDLAKARYHKIVIMTDADVDGAHIRTLLLTFFYRFMRPLIEAGYVYIAQPPLYKLTQGKQKYYVYNDRELDKLKSELNPTPKWSIARYKGLGEMNADQLWETTMNPEHRALLQVKLEDAIEADQTFEMLMGDVVENRRQFIEDNAVYANLDF

> <PDB ID(s) of Target Chain>


> <UniProt (SwissProt) Recommended Name of Target Chain>
DNA gyrase subunit B

> <UniProt (SwissProt) Entry Name of Target Chain>
GYRB_STAAU

> <UniProt (SwissProt) Primary ID of Target Chain>
P0A0K8

> <UniProt (SwissProt) Secondary ID(s) of Target Chain>
P20832

> <UniProt (SwissProt) Alternative ID(s) of Target Chain>


> <UniProt (TrEMBL) Submitted Name of Target Chain>


> <UniProt (TrEMBL) Entry Name of Target Chain>


> <UniProt (TrEMBL) Primary ID of Target Chain>


> <UniProt (TrEMBL) Secondary ID(s) of Target Chain>


> <UniProt (TrEMBL) Alternative ID(s) of Target Chain>


$$$$

  SciTegic09081514182D

 20 21  0  0  0  0            999 V2000
    1.2990   -0.7500    0.0000 C   0  0
    1.2990    0.7500    0.0000 C   0  0
    0.0000    1.5000    0.0000 C   0  0
   -1.2990    0.7500    0.0000 C   0  0
   -1.2990   -0.7500    0.0000 C   0  0
    0.0000   -1.5000    0.0000 C   0  0
   -2.5987   -1.5004    0.0000 C   0  0
   -3.9511   -0.8815    0.0000 S   0  0
   -4.9530   -1.9978    0.0000 C   0  0
   -4.2010   -3.2957    0.0000 C   0  0
   -2.7343   -2.9815    0.0000 C   0  0
   -4.8053   -4.6666    0.0000 C   0  0
   -4.0971   -5.6353    0.0000 O   0  0
   -5.9983   -4.7960    0.0000 N   0  0
   -6.4430   -1.8405    0.0000 N   0  0
   -7.0537   -0.4695    0.0000 C   0  0
   -6.3482    0.5012    0.0000 O   0  0
   -8.5462   -0.3119    0.0000 C   0  0
   -9.1568    1.0591    0.0000 C   0  0
  -10.3502    1.1851    0.0000 C   0  0
  1  2  2  0
  2  3  1  0
  3  4  2  0
  4  5  1  0
  5  6  2  0
  6  1  1  0
  7  8  1  0
  8  9  1  0
  9 10  2  0
 10 11  1  0
 11  7  2  0
  5  7  1  0
 10 12  1  0
 12 13  2  0
 12 14  1  0
  9 15  1  0
 15 16  1  0
 16 17  2  0
 16 18  1  0
 18 19  1  0
 19 20  1  0
M  END
> <From> 
www.bindingDB.org

> <BindingDB Reactant_set_id>
50302349

> <Ligand InChI>
InChI=1S/C15H16N2O2S/c1-2-6-13(18)17-15-11(14(16)19)9-12(20-15)10-7-4-3-5-8-10/h3-5,7-9H,2,6H2,1H3,(H2,16,19)(H,17,18)

> <Ligand InChI Key>
DBOLHGXQGCGQTA-UHFFFAOYSA-N

> <BindingDB MonomerID>
50066113

> <BindingDB Ligand Name>
CHEMBL3402954

> <Target Name Assigned by Curator or DataSource>
DNA gyrase subunit B

> <Target Source Organism According to Curator or DataSource>


> <Ki (nM)>


> <IC50 (nM)>
 3570

> <Kd (nM)>


> <EC50 (nM)>


> <kon (M-1-s-1)>


> <koff (s-1)>


> <pH>


> <Temp C>
25.00

> <Curation/DataSource>
ChEMBL

> <Article DOI>
10.1016/j.bmc.2015.02.032

> <PMID>
25766629

> <PubChem AID>


> <Patent Number>


> <Authors>
Saxena, S; Samala, G; Renuka, J; Sridevi, JP; Yogeeswari, P; Sriram, D

> <Institution>
Birla Institute of Technology&amp; Science-Pilani

> <Link to Ligand in BindingDB>
http://www.bindingdb.org/bind/chemsearch/marvin/MolStructure.jsp?monomerid=50066113

> <Link to Ligand-Target Pair in BindingDB>
http://www.bindingdb.org/jsp/dbsearch/PrimarySearch_ki.jsp?energyterm=kJ/mole&tag=pol&polymerid=50006452&target=DNA+gyrase+subunit+B&column=ki&startPg=0&Increment=50&submit=Search

> <Link to Ligand-Target Pair in BindingDB>
http://www.bindingdb.org/jsp/dbsearch/PrimarySearch_ki.jsp?energyterm=kJ/mole&tag=r21&monomerid=50066113&enzyme=DNA+gyrase+subunit+B&column=ki&startPg=0&Increment=50&submit=Search

> <Ligand HET ID in PDB>


> <PDB ID(s) for Ligand-Target Complex>


> <PubChem CID>
16857880

> <PubChem SID>
103960795

> <ChEBI ID of Ligand>


> <ChEMBL ID of Ligand>
CHEMBL106842

> <DrugBank ID of Ligand>


> <IUPHAR_GRAC ID of Ligand>


> <KEGG ID of Ligand>


> <ZINC ID of Ligand>
ZINC13780715

> <Number of Protein Chains in Target (>1 implies a multichain complex)>
1

> <BindingDB Target Chain Sequence>
MAAQKNNAPKEYGADSITILEGLEAVRKRPGMYIGSTGERGLHHLIWEVVDNAVDEAMAGFATRVDVKIHADGSVEVRDDGRGIPVEMHATGMPTIDVVMTQLHAGGKFDGETYAVSGGLHGVGVSVVNALSTRLEATVLRDGYEWFQYYDRSVPGKLKQGGETKETGTTIRFWADPEIFETTDYNFETVARRLQEMAFLNKGLTIELTDERVTAEEVVDDVVKDTAEAPKTADEKAAEATGPSKVKHRVFHYPGGLVDYVKHINRTKTPIQQSIIDFDGKGPGHEVEIAMQWNAGYSESVHTFANTINTHEGGTHEEGFRAALTSVVNRYAKDKKLLKDKDPNLTGDDIREGLAAVISVKVAEPQFEGQTKTKLGNTEVKSFVQKICNEQLQHWFEANPAEAKTVVNKAVSSAQARIAARKARELVRRKSATDIGGLPGKLADCRSTDPSKSELYVVEGDSAGGSAKSGRDSMFQAILPLRGKIINVEKARIDRVLKNTEVQSIITALGTGIHDEFDISKLRYHKIVLMADADVDGQHISTLLLTLLFRFMKPLVENGHIFLAQPPLYKLKWQRSEPEFAYSDRERDGLLEAGRAAGKKINVDDGIQRYKGLGEMDAKELWETTMDPSVRVLRQVTLDDAAAADELFSILMGEDVEARRSFITRNAKDVRFLDV

> <PDB ID(s) of Target Chain>
4BAE

> <UniProt (SwissProt) Recommended Name of Target Chain>
DNA gyrase subunit B

> <UniProt (SwissProt) Entry Name of Target Chain>
GYRB_MYCSM

> <UniProt (SwissProt) Primary ID of Target Chain>
P0C559

> <UniProt (SwissProt) Secondary ID(s) of Target Chain>
P48355,Q59555

> <UniProt (SwissProt) Alternative ID(s) of Target Chain>


> <UniProt (TrEMBL) Submitted Name of Target Chain>


> <UniProt (TrEMBL) Entry Name of Target Chain>


> <UniProt (TrEMBL) Primary ID of Target Chain>


> <UniProt (TrEMBL) Secondary ID(s) of Target Chain>


> <UniProt (TrEMBL) Alternative ID(s) of Target Chain>


$$$$

  SciTegic09261414462D

 20 21  0  0  0  0            999 V2000
   31.2706  -10.7225    0.0000 C   0  0
   31.2694  -11.5420    0.0000 C   0  0
   31.9775  -11.9510    0.0000 C   0  0
   32.6872  -11.5416    0.0000 C   0  0
   32.6843  -10.7189    0.0000 C   0  0
   31.9757  -10.3136    0.0000 N   0  0
   30.5628  -10.3141    0.0000 N   0  0
   29.8552  -10.7228    0.0000 C   0  0
   29.1474  -10.3144    0.0000 N   0  0
   29.8554  -11.5400    0.0000 O   0  0
   28.4398  -10.7232    0.0000 C   0  0
   27.7320  -10.3148    0.0000 C   0  0
   33.3960  -11.9466    0.0000 C   0  0
   33.4827  -12.7592    0.0000 S   0  0
   34.2823  -12.9279    0.0000 C   0  0
   34.6899  -12.2195    0.0000 C   0  0
   34.1420  -11.6131    0.0000 N   0  0
   35.5024  -12.1327    0.0000 C   0  0
   35.9839  -12.7930    0.0000 O   0  0
   35.8336  -11.3856    0.0000 O   0  0
  1  2  2  0
  2  3  1  0
  3  4  2  0
  4  5  1  0
  5  6  2  0
  6  1  1  0
  1  7  1  0
  7  8  1  0
  8  9  1  0
  8 10  2  0
  9 11  1  0
 11 12  1  0
 13 14  1  0
 14 15  1  0
 15 16  2  0
 16 17  1  0
 17 13  2  0
  4 13  1  0
 16 18  1  0
 18 19  1  0
 18 20  2  0
M  END
> <From> 
www.bindingDB.org

> <BindingDB Reactant_set_id>
50083255

> <Ligand InChI>
InChI=1S/C12H12N4O3S/c1-2-13-12(19)16-9-4-3-7(5-14-9)10-15-8(6-20-10)11(17)18/h3-6H,2H2,1H3,(H,17,18)(H2,13,14,16,19)

> <Ligand InChI Key>
CAKXPVREAAGBMR-UHFFFAOYSA-N

> <BindingDB MonomerID>
50006548

> <BindingDB Ligand Name>
CHEMBL3235071

> <Target Name Assigned by Curator or DataSource>
DNA Gyrase Subunit B

> <Target Source Organism According to Curator or DataSource>
Staphylococcus aureus

> <Ki (nM)>


> <IC50 (nM)>
 3600

> <Kd (nM)>


> <EC50 (nM)>


> <kon (M-1-s-1)>


> <koff (s-1)>


> <pH>


> <Temp C>


> <Curation/DataSource>
ChEMBL

> <Article DOI>
10.1021/jm401208b

> <PMID>
24098982

> <PubChem AID>


> <Patent Number>


> <Authors>
Basarab, GS; Basarab, GS; Boriack-Sjodin, PA; Boriack-Sjodin, PA; Illingworth, R; Illingworth, R; Manchester, JI; Manchester, JI; Dangel, B; Dangel, B; Sriram, S; Sriram, S

> <Institution>
AstraZeneca R&amp;D Boston

> <Link to Ligand in BindingDB>
http://www.bindingdb.org/bind/chemsearch/marvin/MolStructure.jsp?monomerid=50006548

> <Link to Ligand-Target Pair in BindingDB>
http://www.bindingdb.org/jsp/dbsearch/PrimarySearch_ki.jsp?energyterm=kJ/mole&tag=pol&polymerid=2626&target=DNA+Gyrase+Subunit+B&column=ki&startPg=0&Increment=50&submit=Search

> <Link to Ligand-Target Pair in BindingDB>
http://www.bindingdb.org/jsp/dbsearch/PrimarySearch_ki.jsp?energyterm=kJ/mole&tag=r21&monomerid=50006548&enzyme=DNA+Gyrase+Subunit+B&column=ki&startPg=0&Increment=50&submit=Search

> <Ligand HET ID in PDB>


> <PDB ID(s) for Ligand-Target Complex>


> <PubChem CID>
59208440

> <PubChem SID>
103919949

> <ChEBI ID of Ligand>


> <ChEMBL ID of Ligand>
CHEMBL3235071

> <DrugBank ID of Ligand>


> <IUPHAR_GRAC ID of Ligand>


> <KEGG ID of Ligand>


> <ZINC ID of Ligand>
ZINC13456294

> <Number of Protein Chains in Target (>1 implies a multichain complex)>
1

> <BindingDB Target Chain Sequence>
MVTALSDVNNTDNYGAGQIQVLEGLEAVRKRPGMYIGSTSERGLHHLVWEIVDNSIDEALAGYANQIEVVIEKDNWIKVTDNGRGIPVDIQEKMGRPAVEVILTVLHAGGKFGGGGYKVSGGLHGVGSSVVNALSQDLEVYVHRNETIYHQAYKKGVPQFDLKEVGTTDKTGTVIRFKADGEIFTETTVYNYETLQQRIRELAFLNKGIQITLRDERDEENVREDSYHYEGGIKSYVELLNENKEPIHDEPIYIHQSKDDIEVEIAIQYNSGYATNLLTYANNIHTYEGGTHEDGFKRALTRVLNSYGLSSKIMKEEKDRLSGEDTREGMTAIISIKHGDPQFEGQTKTKLGNSEVRQVVDKLFSEHFERFLYENPQVARTVVEKGIMAARARVAAKKAREVTRRKSALDVASLPGKLADCSSKSPEECEIFLVEGDSAGGSTKSGRDSRTQAILPLRGKILNVEKARLDRILNNNEIRQMITAFGTGIGGDFDLAKARYHKIVIMTDADVDGAHIRTLLLTFFYRFMRPLIEAGYVYIAQPPLYKLTQGKQKYYVYNDRELDKLKSELNPTPKWSIARYKGLGEMNADQLWETTMNPEHRALLQVKLEDAIEADQTFEMLMGDVVENRRQFIEDNAVYANLDF

> <PDB ID(s) of Target Chain>


> <UniProt (SwissProt) Recommended Name of Target Chain>
DNA gyrase subunit B

> <UniProt (SwissProt) Entry Name of Target Chain>
GYRB_STAAU

> <UniProt (SwissProt) Primary ID of Target Chain>
P0A0K8

> <UniProt (SwissProt) Secondary ID(s) of Target Chain>
P20832

> <UniProt (SwissProt) Alternative ID(s) of Target Chain>


> <UniProt (TrEMBL) Submitted Name of Target Chain>


> <UniProt (TrEMBL) Entry Name of Target Chain>


> <UniProt (TrEMBL) Primary ID of Target Chain>


> <UniProt (TrEMBL) Secondary ID(s) of Target Chain>


> <UniProt (TrEMBL) Alternative ID(s) of Target Chain>


$$$$

  Mrv0541 04171609262D          

 30 33  0  0  0  0            999 V2000
   -1.4361    0.4117    0.0000 C   0  0  0  0  0  0  0  0  0  0  0  0
   -1.4361   -0.4117    0.0000 C   0  0  0  0  0  0  0  0  0  0  0  0
   -0.7130   -0.8235    0.0000 C   0  0  0  0  0  0  0  0  0  0  0  0
   -0.7130    0.8235    0.0000 C   0  0  0  0  0  0  0  0  0  0  0  0
    0.0000    0.4117    0.0000 C   0  0  0  0  0  0  0  0  0  0  0  0
    0.0000   -0.4117    0.0000 C   0  0  0  0  0  0  0  0  0  0  0  0
    0.7130   -0.8235    0.0000 N   0  0  0  0  0  0  0  0  0  0  0  0
    1.4261   -0.4117    0.0000 C   0  0  0  0  0  0  0  0  0  0  0  0
    1.4261    0.4117    0.0000 C   0  0  0  0  0  0  0  0  0  0  0  0
    0.7130    0.8235    0.0000 C   0  0  0  0  0  0  0  0  0  0  0  0
    0.7130    1.6489    0.0000 N   0  0  0  0  0  0  0  0  0  0  0  0
   -0.0008    2.0627    0.0000 C   0  0  0  0  0  0  0  0  0  0  0  0
    0.0006    2.8877    0.0000 C   0  0  0  0  0  0  0  0  0  0  0  0
    0.7158    3.2990    0.0000 C   0  0  0  0  0  0  0  0  0  0  0  0
    1.4296    2.8853    0.0000 C   0  0  0  0  0  0  0  0  0  0  0  0
    1.4282    2.0603    0.0000 C   0  0  0  0  0  0  0  0  0  0  0  0
    0.7188    4.1245    0.0000 N   0  0  0  0  0  0  0  0  0  0  0  0
    1.4350    4.5350    0.0000 C   0  0  0  0  0  0  0  0  0  0  0  0
    2.0054    4.2031    0.0000 S   0  0  0  0  0  0  0  0  0  0  0  0
    1.4380    5.3604    0.0000 N   0  0  0  0  0  0  0  0  0  0  0  0
    2.1541    5.7709    0.0000 C   0  0  0  0  0  0  0  0  0  0  0  0
    2.1584    6.5960    0.0000 C   0  0  0  0  0  0  0  0  0  0  0  0
    2.8750    7.0048    0.0000 C   0  0  0  0  0  0  0  0  0  0  0  0
    3.5873    6.5887    0.0000 C   0  0  0  0  0  0  0  0  0  0  0  0
    3.5831    5.7637    0.0000 C   0  0  0  0  0  0  0  0  0  0  0  0
    2.8666    5.3548    0.0000 C   0  0  0  0  0  0  0  0  0  0  0  0
    1.9977   -0.7417    0.0000 C   0  0  0  0  0  0  0  0  0  0  0  0
    4.3051    6.9962    0.0000 N   0  3  0  0  0  0  0  0  0  0  0  0
    4.8746    6.6626    0.0000 O   0  0  0  0  0  0  0  0  0  0  0  0
    4.3096    7.6562    0.0000 O   0  5  0  0  0  0  0  0  0  0  0  0
  1  2  4  0  0  0  0
  2  3  4  0  0  0  0
  3  6  4  0  0  0  0
  5  4  4  0  0  0  0
  4  1  4  0  0  0  0
  5  6  4  0  0  0  0
  6  7  4  0  0  0  0
  7  8  4  0  0  0  0
  8  9  4  0  0  0  0
  9 10  4  0  0  0  0
 10  5  4  0  0  0  0
 11 12  1  0  0  0  0
 11 16  1  0  0  0  0
 12 13  1  0  0  0  0
 13 14  1  0  0  0  0
 14 15  1  0  0  0  0
 15 16  1  0  0  0  0
 10 11  1  0  0  0  0
 14 17  1  0  0  0  0
 17 18  1  0  0  0  0
 18 19  2  0  0  0  0
 18 20  1  0  0  0  0
 20 21  1  0  0  0  0
 21 22  4  0  0  0  0
 22 23  4  0  0  0  0
 23 24  4  0  0  0  0
 24 25  4  0  0  0  0
 25 26  4  0  0  0  0
 26 21  4  0  0  0  0
  8 27  1  0  0  0  0
 28 29  2  0  0  0  0
 28 30  1  0  0  0  0
 24 28  1  0  0  0  0
M  CHG  2  28   1  30  -1
M  END
> <From> 
www.bindingDB.org

> <BindingDB Reactant_set_id>
50303840

> <Ligand InChI>
InChI=1S/C22H23N5O2S/c1-15-14-21(19-4-2-3-5-20(19)23-15)26-12-10-17(11-13-26)25-22(30)24-16-6-8-18(9-7-16)27(28)29/h2-9,14,17H,10-13H2,1H3,(H2,24,25,30)

> <Ligand InChI Key>
ZIEMVJLLQSEHEY-UHFFFAOYSA-N

> <BindingDB MonomerID>
50067148

> <BindingDB Ligand Name>
CHEMBL3403269

> <Target Name Assigned by Curator or DataSource>
DNA gyrase subunit B

> <Target Source Organism According to Curator or DataSource>


> <Ki (nM)>


> <IC50 (nM)>
 3770

> <Kd (nM)>


> <EC50 (nM)>


> <kon (M-1-s-1)>


> <koff (s-1)>


> <pH>


> <Temp C>


> <Curation/DataSource>
ChEMBL

> <Article DOI>
10.1016/j.bmc.2015.03.004

> <PMID>
25801151

> <PubChem AID>


> <Patent Number>


> <Authors>
Medapi, B; Renuka, J; Saxena, S; Sridevi, JP; Medishetti, R; Kulkarni, P; Yogeeswari, P; Sriram, D

> <Institution>
Birla Institute of Technology&amp; Science-Pilani

> <Link to Ligand in BindingDB>
http://www.bindingdb.org/bind/chemsearch/marvin/MolStructure.jsp?monomerid=50067148

> <Link to Ligand-Target Pair in BindingDB>
http://www.bindingdb.org/jsp/dbsearch/PrimarySearch_ki.jsp?energyterm=kJ/mole&tag=pol&polymerid=50006452&target=DNA+gyrase+subunit+B&column=ki&startPg=0&Increment=50&submit=Search

> <Link to Ligand-Target Pair in BindingDB>
http://www.bindingdb.org/jsp/dbsearch/PrimarySearch_ki.jsp?energyterm=kJ/mole&tag=r21&monomerid=50067148&enzyme=DNA+gyrase+subunit+B&column=ki&startPg=0&Increment=50&submit=Search

> <Ligand HET ID in PDB>


> <PDB ID(s) for Ligand-Target Complex>


> <PubChem CID>
118729685

> <PubChem SID>
313071779

> <ChEBI ID of Ligand>


> <ChEMBL ID of Ligand>


> <DrugBank ID of Ligand>


> <IUPHAR_GRAC ID of Ligand>


> <KEGG ID of Ligand>


> <ZINC ID of Ligand>


> <Number of Protein Chains in Target (>1 implies a multichain complex)>
1

> <BindingDB Target Chain Sequence>
MAAQKNNAPKEYGADSITILEGLEAVRKRPGMYIGSTGERGLHHLIWEVVDNAVDEAMAGFATRVDVKIHADGSVEVRDDGRGIPVEMHATGMPTIDVVMTQLHAGGKFDGETYAVSGGLHGVGVSVVNALSTRLEATVLRDGYEWFQYYDRSVPGKLKQGGETKETGTTIRFWADPEIFETTDYNFETVARRLQEMAFLNKGLTIELTDERVTAEEVVDDVVKDTAEAPKTADEKAAEATGPSKVKHRVFHYPGGLVDYVKHINRTKTPIQQSIIDFDGKGPGHEVEIAMQWNAGYSESVHTFANTINTHEGGTHEEGFRAALTSVVNRYAKDKKLLKDKDPNLTGDDIREGLAAVISVKVAEPQFEGQTKTKLGNTEVKSFVQKICNEQLQHWFEANPAEAKTVVNKAVSSAQARIAARKARELVRRKSATDIGGLPGKLADCRSTDPSKSELYVVEGDSAGGSAKSGRDSMFQAILPLRGKIINVEKARIDRVLKNTEVQSIITALGTGIHDEFDISKLRYHKIVLMADADVDGQHISTLLLTLLFRFMKPLVENGHIFLAQPPLYKLKWQRSEPEFAYSDRERDGLLEAGRAAGKKINVDDGIQRYKGLGEMDAKELWETTMDPSVRVLRQVTLDDAAAADELFSILMGEDVEARRSFITRNAKDVRFLDV

> <PDB ID(s) of Target Chain>
4BAE

> <UniProt (SwissProt) Recommended Name of Target Chain>
DNA gyrase subunit B

> <UniProt (SwissProt) Entry Name of Target Chain>
GYRB_MYCSM

> <UniProt (SwissProt) Primary ID of Target Chain>
P0C559

> <UniProt (SwissProt) Secondary ID(s) of Target Chain>
P48355,Q59555

> <UniProt (SwissProt) Alternative ID(s) of Target Chain>


> <UniProt (TrEMBL) Submitted Name of Target Chain>


> <UniProt (TrEMBL) Entry Name of Target Chain>


> <UniProt (TrEMBL) Primary ID of Target Chain>


> <UniProt (TrEMBL) Secondary ID(s) of Target Chain>


> <UniProt (TrEMBL) Alternative ID(s) of Target Chain>


$$$$

  Mrv0541 11171616332D          

 31 35  0  0  0  0            999 V2000
   13.5295   -7.6842    0.0000 O   0  0  0  0  0  0  0  0  0  0  0  0
   14.0144   -7.0167    0.0000 C   0  0  0  0  0  0  0  0  0  0  0  0
   13.5295   -6.3493    0.0000 C   0  0  0  0  0  0  0  0  0  0  0  0
   12.7449   -6.6042    0.0000 C   0  0  0  0  0  0  0  0  0  0  0  0
   12.7449   -7.4292    0.0000 C   0  0  0  0  0  0  0  0  0  0  0  0
   12.0304   -6.1917    0.0000 C   0  0  0  0  0  0  0  0  0  0  0  0
   11.3159   -6.6042    0.0000 C   0  0  0  0  0  0  0  0  0  0  0  0
   11.3159   -7.4292    0.0000 C   0  0  0  0  0  0  0  0  0  0  0  0
   12.0304   -7.8418    0.0000 C   0  0  0  0  0  0  0  0  0  0  0  0
   14.8394   -7.0167    0.0000 C   0  0  0  0  0  0  0  0  0  0  0  0
   15.2519   -7.7312    0.0000 O   0  0  0  0  0  0  0  0  0  0  0  0
   15.2519   -6.3023    0.0000 O   0  0  0  0  0  0  0  0  0  0  0  0
   10.6014   -6.1917    0.0000 N   0  0  0  0  0  0  0  0  0  0  0  0
    9.8869   -6.6042    0.0000 C   0  0  0  0  0  0  0  0  0  0  0  0
    9.1725   -6.1917    0.0000 C   0  0  0  0  0  0  0  0  0  0  0  0
    9.1725   -5.3667    0.0000 N   0  0  0  0  0  0  0  0  0  0  0  0
    9.8869   -4.9542    0.0000 C   0  0  0  0  0  0  0  0  0  0  0  0
   10.6014   -5.3667    0.0000 C   0  0  0  0  0  0  0  0  0  0  0  0
    8.4580   -4.9542    0.0000 C   0  0  0  0  0  0  0  0  0  0  0  0
    8.4580   -4.1292    0.0000 O   0  0  0  0  0  0  0  0  0  0  0  0
    6.9899   -5.0311    0.0000 N   0  0  0  0  0  0  0  0  0  0  0  0
    7.7435   -5.3667    0.0000 C   0  0  0  0  0  0  0  0  0  0  0  0
    7.6573   -6.1872    0.0000 C   0  0  0  0  0  0  0  0  0  0  0  0
    6.8503   -6.3587    0.0000 C   0  0  0  0  0  0  0  0  0  0  0  0
    6.4379   -7.0733    0.0000 C   0  0  0  0  0  0  0  0  0  0  0  0
    5.6128   -7.0733    0.0000 C   0  0  0  0  0  0  0  0  0  0  0  0
    5.2003   -6.3587    0.0000 C   0  0  0  0  0  0  0  0  0  0  0  0
    5.6128   -5.6442    0.0000 C   0  0  0  0  0  0  0  0  0  0  0  0
    6.4379   -5.6442    0.0000 C   0  0  0  0  0  0  0  0  0  0  0  0
   16.0769   -6.3023    0.0000 C   0  0  0  0  0  0  0  0  0  0  0  0
   16.4894   -5.5878    0.0000 C   0  0  0  0  0  0  0  0  0  0  0  0
  1  2  4  0  0  0  0
  2  3  4  0  0  0  0
  3  4  4  0  0  0  0
  4  5  4  0  0  0  0
  1  5  4  0  0  0  0
  6  7  4  0  0  0  0
  7  8  4  0  0  0  0
  8  9  4  0  0  0  0
  5  9  4  0  0  0  0
  4  6  4  0  0  0  0
 10 11  2  0  0  0  0
 10 12  1  0  0  0  0
  2 10  1  0  0  0  0
 13 14  1  0  0  0  0
 14 15  1  0  0  0  0
 15 16  1  0  0  0  0
 16 17  1  0  0  0  0
 17 18  1  0  0  0  0
 13 18  1  0  0  0  0
 19 20  2  0  0  0  0
 21 22  1  0  0  0  0
 22 23  1  0  0  0  0
 23 24  1  0  0  0  0
 24 25  4  0  0  0  0
 25 26  4  0  0  0  0
 26 27  4  0  0  0  0
 27 28  4  0  0  0  0
 28 29  4  0  0  0  0
 21 29  1  0  0  0  0
 24 29  4  0  0  0  0
 19 22  1  0  0  0  0
 16 19  1  0  0  0  0
  7 13  1  0  0  0  0
 30 31  1  0  0  0  0
 12 30  1  0  0  0  0
M  END
> <From> 
www.bindingDB.org

> <BindingDB Reactant_set_id>
50369934

> <Ligand InChI>
InChI=1S/C24H25N3O4/c1-2-30-24(29)22-15-17-13-18(7-8-21(17)31-22)26-9-11-27(12-10-26)23(28)20-14-16-5-3-4-6-19(16)25-20/h3-8,13,15,20,25H,2,9-12,14H2,1H3

> <Ligand InChI Key>
OXDGRABJUSRSNQ-UHFFFAOYSA-N

> <BindingDB MonomerID>
50100649

> <BindingDB Ligand Name>
CHEMBL3323166

> <Target Name Assigned by Curator or DataSource>
DNA gyrase subunit B

> <Target Source Organism According to Curator or DataSource>


> <Ki (nM)>


> <IC50 (nM)>
 3890

> <Kd (nM)>


> <EC50 (nM)>


> <kon (M-1-s-1)>


> <koff (s-1)>


> <pH>


> <Temp C>


> <Curation/DataSource>
ChEMBL

> <Article DOI>
10.1016/j.bmc.2014.06.041

> <PMID>
25129171

> <PubChem AID>


> <Patent Number>


> <Authors>
Renuka, J; Reddy, KI; Srihari, K; Jeankumar, VU; Shravan, M; Sridevi, JP; Yogeeswari, P; Babu, KS; Sriram, D

> <Institution>
Institute of Technology&amp; Science-Pilani

> <Link to Ligand in BindingDB>
http://www.bindingdb.org/bind/chemsearch/marvin/MolStructure.jsp?monomerid=50100649

> <Link to Ligand-Target Pair in BindingDB>
http://www.bindingdb.org/jsp/dbsearch/PrimarySearch_ki.jsp?energyterm=kJ/mole&tag=pol&polymerid=50006452&target=DNA+gyrase+subunit+B&column=ki&startPg=0&Increment=50&submit=Search

> <Link to Ligand-Target Pair in BindingDB>
http://www.bindingdb.org/jsp/dbsearch/PrimarySearch_ki.jsp?energyterm=kJ/mole&tag=r21&monomerid=50100649&enzyme=DNA+gyrase+subunit+B&column=ki&startPg=0&Increment=50&submit=Search

> <Ligand HET ID in PDB>


> <PDB ID(s) for Ligand-Target Complex>


> <PubChem CID>
118710578

> <PubChem SID>
318490758

> <ChEBI ID of Ligand>


> <ChEMBL ID of Ligand>


> <DrugBank ID of Ligand>


> <IUPHAR_GRAC ID of Ligand>


> <KEGG ID of Ligand>


> <ZINC ID of Ligand>


> <Number of Protein Chains in Target (>1 implies a multichain complex)>
1

> <BindingDB Target Chain Sequence>
MAAQKNNAPKEYGADSITILEGLEAVRKRPGMYIGSTGERGLHHLIWEVVDNAVDEAMAGFATRVDVKIHADGSVEVRDDGRGIPVEMHATGMPTIDVVMTQLHAGGKFDGETYAVSGGLHGVGVSVVNALSTRLEATVLRDGYEWFQYYDRSVPGKLKQGGETKETGTTIRFWADPEIFETTDYNFETVARRLQEMAFLNKGLTIELTDERVTAEEVVDDVVKDTAEAPKTADEKAAEATGPSKVKHRVFHYPGGLVDYVKHINRTKTPIQQSIIDFDGKGPGHEVEIAMQWNAGYSESVHTFANTINTHEGGTHEEGFRAALTSVVNRYAKDKKLLKDKDPNLTGDDIREGLAAVISVKVAEPQFEGQTKTKLGNTEVKSFVQKICNEQLQHWFEANPAEAKTVVNKAVSSAQARIAARKARELVRRKSATDIGGLPGKLADCRSTDPSKSELYVVEGDSAGGSAKSGRDSMFQAILPLRGKIINVEKARIDRVLKNTEVQSIITALGTGIHDEFDISKLRYHKIVLMADADVDGQHISTLLLTLLFRFMKPLVENGHIFLAQPPLYKLKWQRSEPEFAYSDRERDGLLEAGRAAGKKINVDDGIQRYKGLGEMDAKELWETTMDPSVRVLRQVTLDDAAAADELFSILMGEDVEARRSFITRNAKDVRFLDV

> <PDB ID(s) of Target Chain>
4BAE

> <UniProt (SwissProt) Recommended Name of Target Chain>
DNA gyrase subunit B

> <UniProt (SwissProt) Entry Name of Target Chain>
GYRB_MYCSM

> <UniProt (SwissProt) Primary ID of Target Chain>
P0C559

> <UniProt (SwissProt) Secondary ID(s) of Target Chain>
P48355,Q59555

> <UniProt (SwissProt) Alternative ID(s) of Target Chain>


> <UniProt (TrEMBL) Submitted Name of Target Chain>


> <UniProt (TrEMBL) Entry Name of Target Chain>


> <UniProt (TrEMBL) Primary ID of Target Chain>


> <UniProt (TrEMBL) Secondary ID(s) of Target Chain>


> <UniProt (TrEMBL) Alternative ID(s) of Target Chain>


$$$$

  SciTegic02271514552D

 30 33  0  0  0  0            999 V2000
   12.9680  -11.4050    0.0000 O   0  0
   13.4529  -10.7376    0.0000 C   0  0
   12.9680  -10.0702    0.0000 C   0  0
   12.1834  -10.3251    0.0000 C   0  0
   12.1834  -11.1501    0.0000 C   0  0
   11.4689   -9.9126    0.0000 C   0  0
   10.7545  -10.3251    0.0000 C   0  0
   10.7545  -11.1501    0.0000 C   0  0
   11.4689  -11.5626    0.0000 C   0  0
   14.2779  -10.7376    0.0000 C   0  0
   14.6904  -11.4521    0.0000 O   0  0
   14.6904  -10.0231    0.0000 O   0  0
   10.0400   -9.9126    0.0000 N   0  0
    9.3254  -10.3251    0.0000 C   0  0
    8.6110   -9.9126    0.0000 C   0  0
    8.6110   -9.0876    0.0000 N   0  0
    9.3254   -8.6751    0.0000 C   0  0
   10.0400   -9.0876    0.0000 C   0  0
    7.8965   -8.6751    0.0000 C   0  0
    7.8965   -7.8502    0.0000 O   0  0
    7.1820   -9.0876    0.0000 C   0  0
    6.4676   -8.6751    0.0000 O   0  0
    5.7531   -9.0876    0.0000 C   0  0
    5.7531   -9.9126    0.0000 C   0  0
    5.0386  -10.3251    0.0000 C   0  0
    4.3242   -9.9126    0.0000 C   0  0
    4.3242   -9.0876    0.0000 C   0  0
    5.0386   -8.6751    0.0000 C   0  0
   15.5155  -10.0231    0.0000 C   0  0
   15.9280   -9.3087    0.0000 C   0  0
  1  2  1  0
  2  3  2  0
  3  4  1  0
  4  5  1  0
  1  5  1  0
  6  7  1  0
  7  8  2  0
  8  9  1  0
  5  9  2  0
  4  6  2  0
 10 11  2  0
 10 12  1  0
  2 10  1  0
 13 14  1  0
 14 15  1  0
 15 16  1  0
 16 17  1  0
 17 18  1  0
 13 18  1  0
 19 20  2  0
 19 21  1  0
 23 24  1  0
 24 25  2  0
 25 26  1  0
 26 27  2  0
 27 28  1  0
 23 28  2  0
 22 23  1  0
 21 22  1  0
 16 19  1  0
  7 13  1  0
 29 30  1  0
 12 29  1  0
M  END
> <From> 
www.bindingDB.org

> <BindingDB Reactant_set_id>
50369954

> <Ligand InChI>
InChI=1S/C23H24N2O5/c1-2-28-23(27)21-15-17-14-18(8-9-20(17)30-21)24-10-12-25(13-11-24)22(26)16-29-19-6-4-3-5-7-19/h3-9,14-15H,2,10-13,16H2,1H3

> <Ligand InChI Key>
BBAAYFIWBIMQMC-UHFFFAOYSA-N

> <BindingDB MonomerID>
50100688

> <BindingDB Ligand Name>
CHEMBL3323161

> <Target Name Assigned by Curator or DataSource>
DNA gyrase subunit B

> <Target Source Organism According to Curator or DataSource>


> <Ki (nM)>


> <IC50 (nM)>
 3970

> <Kd (nM)>


> <EC50 (nM)>


> <kon (M-1-s-1)>


> <koff (s-1)>


> <pH>


> <Temp C>


> <Curation/DataSource>
ChEMBL

> <Article DOI>
10.1016/j.bmc.2014.06.041

> <PMID>
25129171

> <PubChem AID>


> <Patent Number>


> <Authors>
Renuka, J; Reddy, KI; Srihari, K; Jeankumar, VU; Shravan, M; Sridevi, JP; Yogeeswari, P; Babu, KS; Sriram, D

> <Institution>
Institute of Technology&amp; Science-Pilani

> <Link to Ligand in BindingDB>
http://www.bindingdb.org/bind/chemsearch/marvin/MolStructure.jsp?monomerid=50100688

> <Link to Ligand-Target Pair in BindingDB>
http://www.bindingdb.org/jsp/dbsearch/PrimarySearch_ki.jsp?energyterm=kJ/mole&tag=pol&polymerid=50006452&target=DNA+gyrase+subunit+B&column=ki&startPg=0&Increment=50&submit=Search

> <Link to Ligand-Target Pair in BindingDB>
http://www.bindingdb.org/jsp/dbsearch/PrimarySearch_ki.jsp?energyterm=kJ/mole&tag=r21&monomerid=50100688&enzyme=DNA+gyrase+subunit+B&column=ki&startPg=0&Increment=50&submit=Search

> <Ligand HET ID in PDB>


> <PDB ID(s) for Ligand-Target Complex>


> <PubChem CID>
118710573

> <PubChem SID>
103997416

> <ChEBI ID of Ligand>


> <ChEMBL ID of Ligand>
CHEMBL305464

> <DrugBank ID of Ligand>


> <IUPHAR_GRAC ID of Ligand>


> <KEGG ID of Ligand>


> <ZINC ID of Ligand>
ZINC26293861

> <Number of Protein Chains in Target (>1 implies a multichain complex)>
1

> <BindingDB Target Chain Sequence>
MAAQKNNAPKEYGADSITILEGLEAVRKRPGMYIGSTGERGLHHLIWEVVDNAVDEAMAGFATRVDVKIHADGSVEVRDDGRGIPVEMHATGMPTIDVVMTQLHAGGKFDGETYAVSGGLHGVGVSVVNALSTRLEATVLRDGYEWFQYYDRSVPGKLKQGGETKETGTTIRFWADPEIFETTDYNFETVARRLQEMAFLNKGLTIELTDERVTAEEVVDDVVKDTAEAPKTADEKAAEATGPSKVKHRVFHYPGGLVDYVKHINRTKTPIQQSIIDFDGKGPGHEVEIAMQWNAGYSESVHTFANTINTHEGGTHEEGFRAALTSVVNRYAKDKKLLKDKDPNLTGDDIREGLAAVISVKVAEPQFEGQTKTKLGNTEVKSFVQKICNEQLQHWFEANPAEAKTVVNKAVSSAQARIAARKARELVRRKSATDIGGLPGKLADCRSTDPSKSELYVVEGDSAGGSAKSGRDSMFQAILPLRGKIINVEKARIDRVLKNTEVQSIITALGTGIHDEFDISKLRYHKIVLMADADVDGQHISTLLLTLLFRFMKPLVENGHIFLAQPPLYKLKWQRSEPEFAYSDRERDGLLEAGRAAGKKINVDDGIQRYKGLGEMDAKELWETTMDPSVRVLRQVTLDDAAAADELFSILMGEDVEARRSFITRNAKDVRFLDV

> <PDB ID(s) of Target Chain>
4BAE

> <UniProt (SwissProt) Recommended Name of Target Chain>
DNA gyrase subunit B

> <UniProt (SwissProt) Entry Name of Target Chain>
GYRB_MYCSM

> <UniProt (SwissProt) Primary ID of Target Chain>
P0C559

> <UniProt (SwissProt) Secondary ID(s) of Target Chain>
P48355,Q59555

> <UniProt (SwissProt) Alternative ID(s) of Target Chain>


> <UniProt (TrEMBL) Submitted Name of Target Chain>


> <UniProt (TrEMBL) Entry Name of Target Chain>


> <UniProt (TrEMBL) Primary ID of Target Chain>


> <UniProt (TrEMBL) Secondary ID(s) of Target Chain>


> <UniProt (TrEMBL) Alternative ID(s) of Target Chain>


$$$$

  SciTegic12241704342D

 26 29  0  0  0  0            999 V2000
    8.4293   -6.1572    0.0000 N   0  0
    7.7159   -6.5551    0.0000 C   0  0
    7.7030   -7.3722    0.0000 C   0  0
    8.4076   -7.7914    0.0000 N   0  0
    9.1210   -7.3935    0.0000 C   0  0
    9.1298   -6.5764    0.0000 C   0  0
    8.4382   -5.3401    0.0000 C   0  0
    9.1515   -4.9423    0.0000 N   0  0
    7.7377   -4.9209    0.0000 S   0  0
    9.1645   -4.1252    0.0000 C   0  0
    9.8779   -3.7232    0.0000 C   0  0
    9.8908   -2.9061    0.0000 C   0  0
    9.1862   -2.4910    0.0000 C   0  0
    8.4728   -2.8889    0.0000 C   0  0
    8.4640   -3.7060    0.0000 C   0  0
    8.3729  -10.2426    0.0000 N   0  0
    9.0863   -9.8447    0.0000 C   0  0
    9.0951   -9.0276    0.0000 C   0  0
    8.3946   -8.6084    0.0000 C   0  0
    7.6813   -9.0063    0.0000 C   0  0
    6.9808   -8.5871    0.0000 C   0  0
    6.2674   -8.9850    0.0000 C   0  0
    6.2545   -9.8062    0.0000 C   0  0
    6.9549  -10.2213    0.0000 C   0  0
    7.6724   -9.8234    0.0000 C   0  0
    5.5411  -10.2041    0.0000 Cl  0  0
  1  2  1  0
  2  3  1  0
  3  4  1  0
  4  5  1  0
  5  6  1  0
  1  6  1  0
  7  8  1  0
  7  9  2  0
  1  7  1  0
 10 11  1  0
 11 12  2  0
 12 13  1  0
 13 14  2  0
 14 15  1  0
 10 15  2  0
  8 10  1  0
 16 17  2  0
 17 18  1  0
 18 19  2  0
 19 20  1  0
 20 21  2  0
 21 22  1  0
 22 23  2  0
 23 24  1  0
 24 25  2  0
 16 25  1  0
 20 25  1  0
 23 26  1  0
  4 19  1  0
M  END
> <From> 
www.bindingDB.org

> <BindingDB Reactant_set_id>
50528054

> <Ligand InChI>
InChI=1S/C20H19ClN4S/c21-15-6-7-17-18(14-15)22-9-8-19(17)24-10-12-25(13-11-24)20(26)23-16-4-2-1-3-5-16/h1-9,14H,10-13H2,(H,23,26)

> <Ligand InChI Key>
IGDKHJSNVNQTFU-UHFFFAOYSA-N

> <BindingDB MonomerID>
50202009

> <BindingDB Ligand Name>
CHEMBL3978320

> <Target Name Assigned by Curator or DataSource>
DNA gyrase subunit B

> <Target Source Organism According to Curator or DataSource>


> <Ki (nM)>


> <IC50 (nM)>
 4120

> <Kd (nM)>


> <EC50 (nM)>


> <kon (M-1-s-1)>


> <koff (s-1)>


> <pH>


> <Temp C>


> <Curation/DataSource>
ChEMBL

> <Article DOI>
10.1016/j.ejmech.2016.06.042

> <PMID>
27371925

> <PubChem AID>


> <Patent Number>


> <Authors>
Jeankumar, VU; Reshma, RS; Vats, R; Janupally, R; Saxena, S; Yogeeswari, P; Sriram, D

> <Institution>
Birla Institute of Technology&amp; Science-Pilani

> <Link to Ligand in BindingDB>
http://www.bindingdb.org/bind/chemsearch/marvin/MolStructure.jsp?monomerid=50202009

> <Link to Ligand-Target Pair in BindingDB>
http://www.bindingdb.org/jsp/dbsearch/PrimarySearch_ki.jsp?energyterm=kJ/mole&tag=pol&polymerid=50006452&target=DNA+gyrase+subunit+B&column=ki&startPg=0&Increment=50&submit=Search

> <Link to Ligand-Target Pair in BindingDB>
http://www.bindingdb.org/jsp/dbsearch/PrimarySearch_ki.jsp?energyterm=kJ/mole&tag=r21&monomerid=50202009&enzyme=DNA+gyrase+subunit+B&column=ki&startPg=0&Increment=50&submit=Search

> <Ligand HET ID in PDB>


> <PDB ID(s) for Ligand-Target Complex>


> <PubChem CID>
134152421

> <PubChem SID>
375979568

> <ChEBI ID of Ligand>


> <ChEMBL ID of Ligand>


> <DrugBank ID of Ligand>


> <IUPHAR_GRAC ID of Ligand>


> <KEGG ID of Ligand>


> <ZINC ID of Ligand>


> <Number of Protein Chains in Target (>1 implies a multichain complex)>
1

> <BindingDB Target Chain Sequence>
MAAQKNNAPKEYGADSITILEGLEAVRKRPGMYIGSTGERGLHHLIWEVVDNAVDEAMAGFATRVDVKIHADGSVEVRDDGRGIPVEMHATGMPTIDVVMTQLHAGGKFDGETYAVSGGLHGVGVSVVNALSTRLEATVLRDGYEWFQYYDRSVPGKLKQGGETKETGTTIRFWADPEIFETTDYNFETVARRLQEMAFLNKGLTIELTDERVTAEEVVDDVVKDTAEAPKTADEKAAEATGPSKVKHRVFHYPGGLVDYVKHINRTKTPIQQSIIDFDGKGPGHEVEIAMQWNAGYSESVHTFANTINTHEGGTHEEGFRAALTSVVNRYAKDKKLLKDKDPNLTGDDIREGLAAVISVKVAEPQFEGQTKTKLGNTEVKSFVQKICNEQLQHWFEANPAEAKTVVNKAVSSAQARIAARKARELVRRKSATDIGGLPGKLADCRSTDPSKSELYVVEGDSAGGSAKSGRDSMFQAILPLRGKIINVEKARIDRVLKNTEVQSIITALGTGIHDEFDISKLRYHKIVLMADADVDGQHISTLLLTLLFRFMKPLVENGHIFLAQPPLYKLKWQRSEPEFAYSDRERDGLLEAGRAAGKKINVDDGIQRYKGLGEMDAKELWETTMDPSVRVLRQVTLDDAAAADELFSILMGEDVEARRSFITRNAKDVRFLDV

> <PDB ID(s) of Target Chain>
4BAE

> <UniProt (SwissProt) Recommended Name of Target Chain>
DNA gyrase subunit B

> <UniProt (SwissProt) Entry Name of Target Chain>
GYRB_MYCSM

> <UniProt (SwissProt) Primary ID of Target Chain>
P0C559

> <UniProt (SwissProt) Secondary ID(s) of Target Chain>
P48355,Q59555

> <UniProt (SwissProt) Alternative ID(s) of Target Chain>


> <UniProt (TrEMBL) Submitted Name of Target Chain>


> <UniProt (TrEMBL) Entry Name of Target Chain>


> <UniProt (TrEMBL) Primary ID of Target Chain>


> <UniProt (TrEMBL) Secondary ID(s) of Target Chain>


> <UniProt (TrEMBL) Alternative ID(s) of Target Chain>


$$$$

  Mrv0541 03201611132D          

 30 33  0  0  0  0            999 V2000
   26.0366  -14.6048    0.0000 O   0  0  0  0  0  0  0  0  0  0  0  0
   26.5247  -13.9402    0.0000 C   0  0  0  0  0  0  0  0  0  0  0  0
   26.0366  -13.2717    0.0000 C   0  0  0  0  0  0  0  0  0  0  0  0
   25.2573  -13.5284    0.0000 C   0  0  0  0  0  0  0  0  0  0  0  0
   25.2573  -14.3521    0.0000 C   0  0  0  0  0  0  0  0  0  0  0  0
   24.5425  -13.1165    0.0000 C   0  0  0  0  0  0  0  0  0  0  0  0
   23.8277  -13.5284    0.0000 C   0  0  0  0  0  0  0  0  0  0  0  0
   23.8277  -14.3521    0.0000 C   0  0  0  0  0  0  0  0  0  0  0  0
   24.5425  -14.7640    0.0000 C   0  0  0  0  0  0  0  0  0  0  0  0
   27.3485  -13.9402    0.0000 C   0  0  0  0  0  0  0  0  0  0  0  0
   27.7604  -14.6509    0.0000 O   0  0  0  0  0  0  0  0  0  0  0  0
   27.7604  -13.2255    0.0000 O   0  0  0  0  0  0  0  0  0  0  0  0
   23.1170  -13.1165    0.0000 N   0  0  0  0  0  0  0  0  0  0  0  0
   22.4021  -13.5284    0.0000 C   0  0  0  0  0  0  0  0  0  0  0  0
   21.6873  -13.1165    0.0000 C   0  0  0  0  0  0  0  0  0  0  0  0
   21.6873  -12.2928    0.0000 N   0  0  0  0  0  0  0  0  0  0  0  0
   22.4021  -11.8766    0.0000 C   0  0  0  0  0  0  0  0  0  0  0  0
   23.1170  -12.2928    0.0000 C   0  0  0  0  0  0  0  0  0  0  0  0
   20.9767  -11.8766    0.0000 C   0  0  0  0  0  0  0  0  0  0  0  0
   20.2619  -12.2928    0.0000 N   0  0  0  0  0  0  0  0  0  0  0  0
   20.9767  -11.0529    0.0000 O   0  0  0  0  0  0  0  0  0  0  0  0
   19.5471  -11.8766    0.0000 C   0  0  0  0  0  0  0  0  0  0  0  0
   18.8364  -12.2928    0.0000 C   0  0  0  0  0  0  0  0  0  0  0  0
   18.8364  -13.1165    0.0000 C   0  0  0  0  0  0  0  0  0  0  0  0
   18.1217  -13.5284    0.0000 C   0  0  0  0  0  0  0  0  0  0  0  0
   17.4069  -13.1165    0.0000 C   0  0  0  0  0  0  0  0  0  0  0  0
   17.4069  -12.2928    0.0000 C   0  0  0  0  0  0  0  0  0  0  0  0
   18.1217  -11.8766    0.0000 C   0  0  0  0  0  0  0  0  0  0  0  0
   28.5842  -13.2255    0.0000 C   0  0  0  0  0  0  0  0  0  0  0  0
   28.9961  -12.5107    0.0000 C   0  0  0  0  0  0  0  0  0  0  0  0
  1  2  4  0  0  0  0
  2  3  4  0  0  0  0
  3  4  4  0  0  0  0
  4  5  4  0  0  0  0
  1  5  4  0  0  0  0
  6  7  4  0  0  0  0
  7  8  4  0  0  0  0
  8  9  4  0  0  0  0
  5  9  4  0  0  0  0
  4  6  4  0  0  0  0
 10 11  2  0  0  0  0
 10 12  1  0  0  0  0
  2 10  1  0  0  0  0
 13 14  1  0  0  0  0
 14 15  1  0  0  0  0
 15 16  1  0  0  0  0
 16 17  1  0  0  0  0
 17 18  1  0  0  0  0
 13 18  1  0  0  0  0
 19 20  1  0  0  0  0
 19 21  2  0  0  0  0
 22 23  1  0  0  0  0
 23 24  4  0  0  0  0
 24 25  4  0  0  0  0
 25 26  4  0  0  0  0
 26 27  4  0  0  0  0
 27 28  4  0  0  0  0
 23 28  4  0  0  0  0
 20 22  1  0  0  0  0
 16 19  1  0  0  0  0
  7 13  1  0  0  0  0
 29 30  1  0  0  0  0
 12 29  1  0  0  0  0
M  END
> <From> 
www.bindingDB.org

> <BindingDB Reactant_set_id>
50254206

> <Ligand InChI>
InChI=1S/C23H25N3O4/c1-2-29-22(27)21-15-18-14-19(8-9-20(18)30-21)25-10-12-26(13-11-25)23(28)24-16-17-6-4-3-5-7-17/h3-9,14-15H,2,10-13,16H2,1H3,(H,24,28)

> <Ligand InChI Key>
JSNZETUOEWUPEI-UHFFFAOYSA-N

> <BindingDB MonomerID>
50037094

> <BindingDB Ligand Name>
CHEMBL3355787

> <Target Name Assigned by Curator or DataSource>
DNA gyrase subunit B

> <Target Source Organism According to Curator or DataSource>


> <Ki (nM)>


> <IC50 (nM)>
 4320

> <Kd (nM)>


> <EC50 (nM)>


> <kon (M-1-s-1)>


> <koff (s-1)>


> <pH>


> <Temp C>


> <Curation/DataSource>
ChEMBL

> <Article DOI>
10.1016/j.bmc.2014.10.016

> <PMID>
25456076

> <PubChem AID>


> <Patent Number>


> <Authors>
Reddy, KI; Srihari, K; Renuka, J; Sree, KS; Chuppala, A; Jeankumar, VU; Sridevi, JP; Babu, KS; Yogeeswari, P; Sriram, D

> <Institution>
TBA

> <Link to Ligand in BindingDB>
http://www.bindingdb.org/bind/chemsearch/marvin/MolStructure.jsp?monomerid=50037094

> <Link to Ligand-Target Pair in BindingDB>
http://www.bindingdb.org/jsp/dbsearch/PrimarySearch_ki.jsp?energyterm=kJ/mole&tag=pol&polymerid=50006452&target=DNA+gyrase+subunit+B&column=ki&startPg=0&Increment=50&submit=Search

> <Link to Ligand-Target Pair in BindingDB>
http://www.bindingdb.org/jsp/dbsearch/PrimarySearch_ki.jsp?energyterm=kJ/mole&tag=r21&monomerid=50037094&enzyme=DNA+gyrase+subunit+B&column=ki&startPg=0&Increment=50&submit=Search

> <Ligand HET ID in PDB>


> <PDB ID(s) for Ligand-Target Complex>


> <PubChem CID>
118721087

> <PubChem SID>
313067065

> <ChEBI ID of Ligand>


> <ChEMBL ID of Ligand>


> <DrugBank ID of Ligand>


> <IUPHAR_GRAC ID of Ligand>


> <KEGG ID of Ligand>


> <ZINC ID of Ligand>


> <Number of Protein Chains in Target (>1 implies a multichain complex)>
1

> <BindingDB Target Chain Sequence>
MAAQKNNAPKEYGADSITILEGLEAVRKRPGMYIGSTGERGLHHLIWEVVDNAVDEAMAGFATRVDVKIHADGSVEVRDDGRGIPVEMHATGMPTIDVVMTQLHAGGKFDGETYAVSGGLHGVGVSVVNALSTRLEATVLRDGYEWFQYYDRSVPGKLKQGGETKETGTTIRFWADPEIFETTDYNFETVARRLQEMAFLNKGLTIELTDERVTAEEVVDDVVKDTAEAPKTADEKAAEATGPSKVKHRVFHYPGGLVDYVKHINRTKTPIQQSIIDFDGKGPGHEVEIAMQWNAGYSESVHTFANTINTHEGGTHEEGFRAALTSVVNRYAKDKKLLKDKDPNLTGDDIREGLAAVISVKVAEPQFEGQTKTKLGNTEVKSFVQKICNEQLQHWFEANPAEAKTVVNKAVSSAQARIAARKARELVRRKSATDIGGLPGKLADCRSTDPSKSELYVVEGDSAGGSAKSGRDSMFQAILPLRGKIINVEKARIDRVLKNTEVQSIITALGTGIHDEFDISKLRYHKIVLMADADVDGQHISTLLLTLLFRFMKPLVENGHIFLAQPPLYKLKWQRSEPEFAYSDRERDGLLEAGRAAGKKINVDDGIQRYKGLGEMDAKELWETTMDPSVRVLRQVTLDDAAAADELFSILMGEDVEARRSFITRNAKDVRFLDV

> <PDB ID(s) of Target Chain>
4BAE

> <UniProt (SwissProt) Recommended Name of Target Chain>
DNA gyrase subunit B

> <UniProt (SwissProt) Entry Name of Target Chain>
GYRB_MYCSM

> <UniProt (SwissProt) Primary ID of Target Chain>
P0C559

> <UniProt (SwissProt) Secondary ID(s) of Target Chain>
P48355,Q59555

> <UniProt (SwissProt) Alternative ID(s) of Target Chain>


> <UniProt (TrEMBL) Submitted Name of Target Chain>


> <UniProt (TrEMBL) Entry Name of Target Chain>


> <UniProt (TrEMBL) Primary ID of Target Chain>


> <UniProt (TrEMBL) Secondary ID(s) of Target Chain>


> <UniProt (TrEMBL) Alternative ID(s) of Target Chain>


$$$$

  Mrv0541 11171616332D          

 30 33  0  0  0  0            999 V2000
   13.2504   -7.5759    0.0000 O   0  0  0  0  0  0  0  0  0  0  0  0
   13.7353   -6.9084    0.0000 C   0  0  0  0  0  0  0  0  0  0  0  0
   13.2504   -6.2410    0.0000 C   0  0  0  0  0  0  0  0  0  0  0  0
   12.4658   -6.4959    0.0000 C   0  0  0  0  0  0  0  0  0  0  0  0
   12.4658   -7.3209    0.0000 C   0  0  0  0  0  0  0  0  0  0  0  0
   11.7513   -6.0834    0.0000 C   0  0  0  0  0  0  0  0  0  0  0  0
   11.0368   -6.4959    0.0000 C   0  0  0  0  0  0  0  0  0  0  0  0
   11.0368   -7.3209    0.0000 C   0  0  0  0  0  0  0  0  0  0  0  0
   11.7513   -7.7334    0.0000 C   0  0  0  0  0  0  0  0  0  0  0  0
   14.5603   -6.9084    0.0000 C   0  0  0  0  0  0  0  0  0  0  0  0
   14.9728   -7.6229    0.0000 O   0  0  0  0  0  0  0  0  0  0  0  0
   14.9728   -6.1940    0.0000 O   0  0  0  0  0  0  0  0  0  0  0  0
   10.3224   -6.0834    0.0000 N   0  0  0  0  0  0  0  0  0  0  0  0
    9.6079   -6.4959    0.0000 C   0  0  0  0  0  0  0  0  0  0  0  0
    8.8934   -6.0834    0.0000 C   0  0  0  0  0  0  0  0  0  0  0  0
    8.8934   -5.2584    0.0000 N   0  0  0  0  0  0  0  0  0  0  0  0
    9.6079   -4.8459    0.0000 C   0  0  0  0  0  0  0  0  0  0  0  0
   10.3224   -5.2584    0.0000 C   0  0  0  0  0  0  0  0  0  0  0  0
    8.1790   -4.8459    0.0000 C   0  0  0  0  0  0  0  0  0  0  0  0
    7.4644   -5.2584    0.0000 C   0  0  0  0  0  0  0  0  0  0  0  0
    7.4644   -6.0834    0.0000 C   0  0  0  0  0  0  0  0  0  0  0  0
    6.7499   -6.4959    0.0000 C   0  0  0  0  0  0  0  0  0  0  0  0
    6.0355   -6.0834    0.0000 C   0  0  0  0  0  0  0  0  0  0  0  0
    6.0355   -5.2584    0.0000 C   0  0  0  0  0  0  0  0  0  0  0  0
    6.7499   -4.8459    0.0000 C   0  0  0  0  0  0  0  0  0  0  0  0
    8.1790   -4.0209    0.0000 O   0  0  0  0  0  0  0  0  0  0  0  0
    6.7499   -7.3209    0.0000 O   0  0  0  0  0  0  0  0  0  0  0  0
    6.0355   -7.7334    0.0000 C   0  0  0  0  0  0  0  0  0  0  0  0
   15.7978   -6.1940    0.0000 C   0  0  0  0  0  0  0  0  0  0  0  0
   16.2103   -5.4795    0.0000 C   0  0  0  0  0  0  0  0  0  0  0  0
  1  2  4  0  0  0  0
  2  3  4  0  0  0  0
  3  4  4  0  0  0  0
  4  5  4  0  0  0  0
  1  5  4  0  0  0  0
  6  7  4  0  0  0  0
  7  8  4  0  0  0  0
  8  9  4  0  0  0  0
  5  9  4  0  0  0  0
  4  6  4  0  0  0  0
 10 11  2  0  0  0  0
 10 12  1  0  0  0  0
  2 10  1  0  0  0  0
 13 14  1  0  0  0  0
 14 15  1  0  0  0  0
 15 16  1  0  0  0  0
 16 17  1  0  0  0  0
 17 18  1  0  0  0  0
 13 18  1  0  0  0  0
 19 20  1  0  0  0  0
 20 21  4  0  0  0  0
 21 22  4  0  0  0  0
 22 23  4  0  0  0  0
 23 24  4  0  0  0  0
 24 25  4  0  0  0  0
 20 25  4  0  0  0  0
 19 26  2  0  0  0  0
 27 28  1  0  0  0  0
 22 27  1  0  0  0  0
 16 19  1  0  0  0  0
  7 13  1  0  0  0  0
 29 30  1  0  0  0  0
 12 29  1  0  0  0  0
M  END
> <From> 
www.bindingDB.org

> <BindingDB Reactant_set_id>
50369866

> <Ligand InChI>
InChI=1S/C23H24N2O5/c1-3-29-23(27)21-15-17-13-18(7-8-20(17)30-21)24-9-11-25(12-10-24)22(26)16-5-4-6-19(14-16)28-2/h4-8,13-15H,3,9-12H2,1-2H3

> <Ligand InChI Key>
PZIPHDIXTJRYQQ-UHFFFAOYSA-N

> <BindingDB MonomerID>
50100641

> <BindingDB Ligand Name>
CHEMBL3323254

> <Target Name Assigned by Curator or DataSource>
DNA gyrase subunit B

> <Target Source Organism According to Curator or DataSource>


> <Ki (nM)>


> <IC50 (nM)>
 5010

> <Kd (nM)>


> <EC50 (nM)>


> <kon (M-1-s-1)>


> <koff (s-1)>


> <pH>


> <Temp C>


> <Curation/DataSource>
ChEMBL

> <Article DOI>
10.1016/j.bmc.2014.06.041

> <PMID>
25129171

> <PubChem AID>


> <Patent Number>


> <Authors>
Renuka, J; Reddy, KI; Srihari, K; Jeankumar, VU; Shravan, M; Sridevi, JP; Yogeeswari, P; Babu, KS; Sriram, D

> <Institution>
Institute of Technology&amp; Science-Pilani

> <Link to Ligand in BindingDB>
http://www.bindingdb.org/bind/chemsearch/marvin/MolStructure.jsp?monomerid=50100641

> <Link to Ligand-Target Pair in BindingDB>
http://www.bindingdb.org/jsp/dbsearch/PrimarySearch_ki.jsp?energyterm=kJ/mole&tag=pol&polymerid=50006452&target=DNA+gyrase+subunit+B&column=ki&startPg=0&Increment=50&submit=Search

> <Link to Ligand-Target Pair in BindingDB>
http://www.bindingdb.org/jsp/dbsearch/PrimarySearch_ki.jsp?energyterm=kJ/mole&tag=r21&monomerid=50100641&enzyme=DNA+gyrase+subunit+B&column=ki&startPg=0&Increment=50&submit=Search

> <Ligand HET ID in PDB>


> <PDB ID(s) for Ligand-Target Complex>


> <PubChem CID>
118710635

> <PubChem SID>
318490750

> <ChEBI ID of Ligand>


> <ChEMBL ID of Ligand>


> <DrugBank ID of Ligand>


> <IUPHAR_GRAC ID of Ligand>


> <KEGG ID of Ligand>


> <ZINC ID of Ligand>


> <Number of Protein Chains in Target (>1 implies a multichain complex)>
1

> <BindingDB Target Chain Sequence>
MAAQKNNAPKEYGADSITILEGLEAVRKRPGMYIGSTGERGLHHLIWEVVDNAVDEAMAGFATRVDVKIHADGSVEVRDDGRGIPVEMHATGMPTIDVVMTQLHAGGKFDGETYAVSGGLHGVGVSVVNALSTRLEATVLRDGYEWFQYYDRSVPGKLKQGGETKETGTTIRFWADPEIFETTDYNFETVARRLQEMAFLNKGLTIELTDERVTAEEVVDDVVKDTAEAPKTADEKAAEATGPSKVKHRVFHYPGGLVDYVKHINRTKTPIQQSIIDFDGKGPGHEVEIAMQWNAGYSESVHTFANTINTHEGGTHEEGFRAALTSVVNRYAKDKKLLKDKDPNLTGDDIREGLAAVISVKVAEPQFEGQTKTKLGNTEVKSFVQKICNEQLQHWFEANPAEAKTVVNKAVSSAQARIAARKARELVRRKSATDIGGLPGKLADCRSTDPSKSELYVVEGDSAGGSAKSGRDSMFQAILPLRGKIINVEKARIDRVLKNTEVQSIITALGTGIHDEFDISKLRYHKIVLMADADVDGQHISTLLLTLLFRFMKPLVENGHIFLAQPPLYKLKWQRSEPEFAYSDRERDGLLEAGRAAGKKINVDDGIQRYKGLGEMDAKELWETTMDPSVRVLRQVTLDDAAAADELFSILMGEDVEARRSFITRNAKDVRFLDV

> <PDB ID(s) of Target Chain>
4BAE

> <UniProt (SwissProt) Recommended Name of Target Chain>
DNA gyrase subunit B

> <UniProt (SwissProt) Entry Name of Target Chain>
GYRB_MYCSM

> <UniProt (SwissProt) Primary ID of Target Chain>
P0C559

> <UniProt (SwissProt) Secondary ID(s) of Target Chain>
P48355,Q59555

> <UniProt (SwissProt) Alternative ID(s) of Target Chain>


> <UniProt (TrEMBL) Submitted Name of Target Chain>


> <UniProt (TrEMBL) Entry Name of Target Chain>


> <UniProt (TrEMBL) Primary ID of Target Chain>


> <UniProt (TrEMBL) Secondary ID(s) of Target Chain>


> <UniProt (TrEMBL) Alternative ID(s) of Target Chain>


$$$$

  Mrv0541 03201611132D          

 32 35  0  0  0  0            999 V2000
   12.0799  -10.9971    0.0000 O   0  0  0  0  0  0  0  0  0  0  0  0
   12.5646  -10.3316    0.0000 C   0  0  0  0  0  0  0  0  0  0  0  0
   12.0799   -9.6662    0.0000 C   0  0  0  0  0  0  0  0  0  0  0  0
   11.2994   -9.9191    0.0000 C   0  0  0  0  0  0  0  0  0  0  0  0
   11.2994  -10.7441    0.0000 C   0  0  0  0  0  0  0  0  0  0  0  0
   10.5836   -9.5066    0.0000 C   0  0  0  0  0  0  0  0  0  0  0  0
    9.8677   -9.9191    0.0000 C   0  0  0  0  0  0  0  0  0  0  0  0
    9.8677  -10.7441    0.0000 C   0  0  0  0  0  0  0  0  0  0  0  0
   10.5836  -11.1566    0.0000 C   0  0  0  0  0  0  0  0  0  0  0  0
   13.3896  -10.3316    0.0000 C   0  0  0  0  0  0  0  0  0  0  0  0
   13.8021  -11.0474    0.0000 O   0  0  0  0  0  0  0  0  0  0  0  0
   13.8021   -9.6157    0.0000 O   0  0  0  0  0  0  0  0  0  0  0  0
    9.1518   -9.5066    0.0000 N   0  0  0  0  0  0  0  0  0  0  0  0
    8.4401   -9.9191    0.0000 C   0  0  0  0  0  0  0  0  0  0  0  0
    7.7243   -9.5066    0.0000 C   0  0  0  0  0  0  0  0  0  0  0  0
    7.7243   -8.6816    0.0000 N   0  0  0  0  0  0  0  0  0  0  0  0
    8.4401   -8.2692    0.0000 C   0  0  0  0  0  0  0  0  0  0  0  0
    9.1518   -8.6816    0.0000 C   0  0  0  0  0  0  0  0  0  0  0  0
    7.0085   -8.2692    0.0000 C   0  0  0  0  0  0  0  0  0  0  0  0
    6.2967   -8.6816    0.0000 N   0  0  0  0  0  0  0  0  0  0  0  0
    7.0085   -7.4442    0.0000 O   0  0  0  0  0  0  0  0  0  0  0  0
    5.5809   -8.2692    0.0000 C   0  0  0  0  0  0  0  0  0  0  0  0
    4.8650   -8.6816    0.0000 C   0  0  0  0  0  0  0  0  0  0  0  0
    4.1534   -8.2692    0.0000 C   0  0  0  0  0  0  0  0  0  0  0  0
    4.1534   -7.4442    0.0000 C   0  0  0  0  0  0  0  0  0  0  0  0
    4.8650   -7.0317    0.0000 C   0  0  0  0  0  0  0  0  0  0  0  0
    5.5809   -7.4442    0.0000 C   0  0  0  0  0  0  0  0  0  0  0  0
    3.4375   -7.0317    0.0000 N   0  3  0  0  0  0  0  0  0  0  0  0
    3.4375   -6.2067    0.0000 O   0  0  0  0  0  0  0  0  0  0  0  0
    2.7216   -7.4442    0.0000 O   0  5  0  0  0  0  0  0  0  0  0  0
   14.6271   -9.6157    0.0000 C   0  0  0  0  0  0  0  0  0  0  0  0
   15.0396   -8.9041    0.0000 C   0  0  0  0  0  0  0  0  0  0  0  0
  1  2  4  0  0  0  0
  2  3  4  0  0  0  0
  3  4  4  0  0  0  0
  4  5  4  0  0  0  0
  1  5  4  0  0  0  0
  6  7  4  0  0  0  0
  7  8  4  0  0  0  0
  8  9  4  0  0  0  0
  5  9  4  0  0  0  0
  4  6  4  0  0  0  0
 10 11  2  0  0  0  0
 10 12  1  0  0  0  0
  2 10  1  0  0  0  0
 13 14  1  0  0  0  0
 14 15  1  0  0  0  0
 15 16  1  0  0  0  0
 16 17  1  0  0  0  0
 17 18  1  0  0  0  0
 13 18  1  0  0  0  0
 19 20  1  0  0  0  0
 19 21  2  0  0  0  0
 22 23  4  0  0  0  0
 23 24  4  0  0  0  0
 24 25  4  0  0  0  0
 25 26  4  0  0  0  0
 26 27  4  0  0  0  0
 22 27  4  0  0  0  0
 28 29  2  0  0  0  0
 28 30  1  0  0  0  0
 25 28  1  0  0  0  0
 20 22  1  0  0  0  0
 16 19  1  0  0  0  0
  7 13  1  0  0  0  0
 31 32  1  0  0  0  0
 12 31  1  0  0  0  0
M  CHG  2  28   1  30  -1
M  END
> <From> 
www.bindingDB.org

> <BindingDB Reactant_set_id>
50254208

> <Ligand InChI>
InChI=1S/C22H22N4O6/c1-2-31-21(27)20-14-15-13-18(7-8-19(15)32-20)24-9-11-25(12-10-24)22(28)23-16-3-5-17(6-4-16)26(29)30/h3-8,13-14H,2,9-12H2,1H3,(H,23,28)

> <Ligand InChI Key>
XQRGFNIRTZIOKG-UHFFFAOYSA-N

> <BindingDB MonomerID>
50037190

> <BindingDB Ligand Name>
CHEMBL3355785

> <Target Name Assigned by Curator or DataSource>
DNA gyrase subunit B

> <Target Source Organism According to Curator or DataSource>


> <Ki (nM)>


> <IC50 (nM)>
 5070

> <Kd (nM)>


> <EC50 (nM)>


> <kon (M-1-s-1)>


> <koff (s-1)>


> <pH>


> <Temp C>


> <Curation/DataSource>
ChEMBL

> <Article DOI>
10.1016/j.bmc.2014.10.016

> <PMID>
25456076

> <PubChem AID>


> <Patent Number>


> <Authors>
Reddy, KI; Srihari, K; Renuka, J; Sree, KS; Chuppala, A; Jeankumar, VU; Sridevi, JP; Babu, KS; Yogeeswari, P; Sriram, D

> <Institution>
TBA

> <Link to Ligand in BindingDB>
http://www.bindingdb.org/bind/chemsearch/marvin/MolStructure.jsp?monomerid=50037190

> <Link to Ligand-Target Pair in BindingDB>
http://www.bindingdb.org/jsp/dbsearch/PrimarySearch_ki.jsp?energyterm=kJ/mole&tag=pol&polymerid=50006452&target=DNA+gyrase+subunit+B&column=ki&startPg=0&Increment=50&submit=Search

> <Link to Ligand-Target Pair in BindingDB>
http://www.bindingdb.org/jsp/dbsearch/PrimarySearch_ki.jsp?energyterm=kJ/mole&tag=r21&monomerid=50037190&enzyme=DNA+gyrase+subunit+B&column=ki&startPg=0&Increment=50&submit=Search

> <Ligand HET ID in PDB>


> <PDB ID(s) for Ligand-Target Complex>


> <PubChem CID>
118721085

> <PubChem SID>
313067067

> <ChEBI ID of Ligand>


> <ChEMBL ID of Ligand>


> <DrugBank ID of Ligand>


> <IUPHAR_GRAC ID of Ligand>


> <KEGG ID of Ligand>


> <ZINC ID of Ligand>


> <Number of Protein Chains in Target (>1 implies a multichain complex)>
1

> <BindingDB Target Chain Sequence>
MAAQKNNAPKEYGADSITILEGLEAVRKRPGMYIGSTGERGLHHLIWEVVDNAVDEAMAGFATRVDVKIHADGSVEVRDDGRGIPVEMHATGMPTIDVVMTQLHAGGKFDGETYAVSGGLHGVGVSVVNALSTRLEATVLRDGYEWFQYYDRSVPGKLKQGGETKETGTTIRFWADPEIFETTDYNFETVARRLQEMAFLNKGLTIELTDERVTAEEVVDDVVKDTAEAPKTADEKAAEATGPSKVKHRVFHYPGGLVDYVKHINRTKTPIQQSIIDFDGKGPGHEVEIAMQWNAGYSESVHTFANTINTHEGGTHEEGFRAALTSVVNRYAKDKKLLKDKDPNLTGDDIREGLAAVISVKVAEPQFEGQTKTKLGNTEVKSFVQKICNEQLQHWFEANPAEAKTVVNKAVSSAQARIAARKARELVRRKSATDIGGLPGKLADCRSTDPSKSELYVVEGDSAGGSAKSGRDSMFQAILPLRGKIINVEKARIDRVLKNTEVQSIITALGTGIHDEFDISKLRYHKIVLMADADVDGQHISTLLLTLLFRFMKPLVENGHIFLAQPPLYKLKWQRSEPEFAYSDRERDGLLEAGRAAGKKINVDDGIQRYKGLGEMDAKELWETTMDPSVRVLRQVTLDDAAAADELFSILMGEDVEARRSFITRNAKDVRFLDV

> <PDB ID(s) of Target Chain>
4BAE

> <UniProt (SwissProt) Recommended Name of Target Chain>
DNA gyrase subunit B

> <UniProt (SwissProt) Entry Name of Target Chain>
GYRB_MYCSM

> <UniProt (SwissProt) Primary ID of Target Chain>
P0C559

> <UniProt (SwissProt) Secondary ID(s) of Target Chain>
P48355,Q59555

> <UniProt (SwissProt) Alternative ID(s) of Target Chain>


> <UniProt (TrEMBL) Submitted Name of Target Chain>


> <UniProt (TrEMBL) Entry Name of Target Chain>


> <UniProt (TrEMBL) Primary ID of Target Chain>


> <UniProt (TrEMBL) Secondary ID(s) of Target Chain>


> <UniProt (TrEMBL) Alternative ID(s) of Target Chain>


$$$$

  Mrv0541 11211414282D          

 27 30  0  0  0  0            999 V2000
    0.6750    0.6500    0.0000 C   0  0  0  0  0  0  0  0  0  0  0  0
   -0.0375   -3.0542    0.0000 C   0  0  0  0  0  0  0  0  0  0  0  0
    0.6750   -0.1750    0.0000 N   0  0  0  0  0  0  0  0  0  0  0  0
    0.6750   -1.8167    0.0000 N   0  0  0  0  0  0  0  0  0  0  0  0
    0.6750   -2.6417    0.0000 C   0  0  0  0  0  0  0  0  0  0  0  0
   -0.0333   -3.8917    0.0000 C   0  0  0  0  0  0  0  0  0  0  0  0
    1.3917    1.0625    0.0000 N   0  0  0  0  0  0  0  0  0  0  0  0
   -0.7583   -2.6500    0.0000 C   0  0  0  0  0  0  0  0  0  0  0  0
   -0.7458   -4.3042    0.0000 C   0  0  0  0  0  0  0  0  0  0  0  0
   -0.0375    1.0708    0.0000 S   0  0  0  0  0  0  0  0  0  0  0  0
    0.6750   -4.3000    0.0000 N   0  0  0  0  0  0  0  0  0  0  0  0
   -0.0458   -0.5875    0.0000 C   0  0  0  0  0  0  0  0  0  0  0  0
    1.3875   -0.5875    0.0000 C   0  0  0  0  0  0  0  0  0  0  0  0
   -0.0458   -1.4125    0.0000 C   0  0  0  0  0  0  0  0  0  0  0  0
    1.3875   -1.4042    0.0000 C   0  0  0  0  0  0  0  0  0  0  0  0
   -1.4708   -3.9000    0.0000 C   0  0  0  0  0  0  0  0  0  0  0  0
    1.3917   -3.0542    0.0000 C   0  0  0  0  0  0  0  0  0  0  0  0
    2.1042    0.6500    0.0000 C   0  0  0  0  0  0  0  0  0  0  0  0
   -1.4750   -3.0667    0.0000 C   0  0  0  0  0  0  0  0  0  0  0  0
    1.3917   -3.8875    0.0000 C   0  0  0  0  0  0  0  0  0  0  0  0
   -2.1833   -4.3042    0.0000 Cl  0  0  0  0  0  0  0  0  0  0  0  0
    2.8167    1.0625    0.0000 C   0  0  0  0  0  0  0  0  0  0  0  0
    3.5292    0.6583    0.0000 C   0  0  0  0  0  0  0  0  0  0  0  0
    2.8125    1.8833    0.0000 C   0  0  0  0  0  0  0  0  0  0  0  0
    3.5167    2.2958    0.0000 C   0  0  0  0  0  0  0  0  0  0  0  0
    4.2375    1.0625    0.0000 C   0  0  0  0  0  0  0  0  0  0  0  0
    4.2375    1.8958    0.0000 C   0  0  0  0  0  0  0  0  0  0  0  0
  2  5  1  0  0  0  0
  3  1  1  0  0  0  0
  4 15  1  0  0  0  0
  5  4  1  0  0  0  0
  6  2  1  0  0  0  0
  7  1  1  0  0  0  0
  8  2  2  0  0  0  0
  9  6  2  0  0  0  0
 10  1  2  0  0  0  0
 11 20  2  0  0  0  0
 12  3  1  0  0  0  0
 13  3  1  0  0  0  0
 14 12  1  0  0  0  0
 15 13  1  0  0  0  0
 16 19  2  0  0  0  0
 17  5  2  0  0  0  0
 18  7  1  0  0  0  0
 19  8  1  0  0  0  0
 20 17  1  0  0  0  0
 21 16  1  0  0  0  0
 22 18  1  0  0  0  0
 23 22  2  0  0  0  0
 24 22  1  0  0  0  0
 25 24  2  0  0  0  0
 26 23  1  0  0  0  0
 27 25  1  0  0  0  0
 14  4  1  0  0  0  0
 26 27  2  0  0  0  0
  6 11  1  0  0  0  0
 16  9  1  0  0  0  0
M  END
> <From> 
www.bindingDB.org

> <BindingDB Reactant_set_id>
50528087

> <Ligand InChI>
InChI=1S/C21H21ClN4S/c22-17-6-7-18-19(14-17)23-9-8-20(18)25-10-12-26(13-11-25)21(27)24-15-16-4-2-1-3-5-16/h1-9,14H,10-13,15H2,(H,24,27)

> <Ligand InChI Key>
ZWPFOQMPRQZAOR-UHFFFAOYSA-N

> <BindingDB MonomerID>
50134880

> <BindingDB Ligand Name>
4-(7-Chloro-quinolin-4-yl)-piperazine-1-carbothioic acid benzylamide::CHEMBL144307

> <Target Name Assigned by Curator or DataSource>
DNA gyrase subunit B

> <Target Source Organism According to Curator or DataSource>


> <Ki (nM)>


> <IC50 (nM)>
 5500

> <Kd (nM)>


> <EC50 (nM)>


> <kon (M-1-s-1)>


> <koff (s-1)>


> <pH>


> <Temp C>


> <Curation/DataSource>
ChEMBL

> <Article DOI>
10.1016/j.ejmech.2016.06.042

> <PMID>
27371925

> <PubChem AID>


> <Patent Number>


> <Authors>
Jeankumar, VU; Reshma, RS; Vats, R; Janupally, R; Saxena, S; Yogeeswari, P; Sriram, D

> <Institution>
Birla Institute of Technology&amp; Science-Pilani

> <Link to Ligand in BindingDB>
http://www.bindingdb.org/bind/chemsearch/marvin/MolStructure.jsp?monomerid=50134880

> <Link to Ligand-Target Pair in BindingDB>
http://www.bindingdb.org/jsp/dbsearch/PrimarySearch_ki.jsp?energyterm=kJ/mole&tag=pol&polymerid=50006452&target=DNA+gyrase+subunit+B&column=ki&startPg=0&Increment=50&submit=Search

> <Link to Ligand-Target Pair in BindingDB>
http://www.bindingdb.org/jsp/dbsearch/PrimarySearch_ki.jsp?energyterm=kJ/mole&tag=r21&monomerid=50134880&enzyme=DNA+gyrase+subunit+B&column=ki&startPg=0&Increment=50&submit=Search

> <Ligand HET ID in PDB>


> <PDB ID(s) for Ligand-Target Complex>


> <PubChem CID>
11749848

> <PubChem SID>
104025375

> <ChEBI ID of Ligand>


> <ChEMBL ID of Ligand>
CHEMBL144307

> <DrugBank ID of Ligand>


> <IUPHAR_GRAC ID of Ligand>


> <KEGG ID of Ligand>


> <ZINC ID of Ligand>
ZINC13528842

> <Number of Protein Chains in Target (>1 implies a multichain complex)>
1

> <BindingDB Target Chain Sequence>
MAAQKNNAPKEYGADSITILEGLEAVRKRPGMYIGSTGERGLHHLIWEVVDNAVDEAMAGFATRVDVKIHADGSVEVRDDGRGIPVEMHATGMPTIDVVMTQLHAGGKFDGETYAVSGGLHGVGVSVVNALSTRLEATVLRDGYEWFQYYDRSVPGKLKQGGETKETGTTIRFWADPEIFETTDYNFETVARRLQEMAFLNKGLTIELTDERVTAEEVVDDVVKDTAEAPKTADEKAAEATGPSKVKHRVFHYPGGLVDYVKHINRTKTPIQQSIIDFDGKGPGHEVEIAMQWNAGYSESVHTFANTINTHEGGTHEEGFRAALTSVVNRYAKDKKLLKDKDPNLTGDDIREGLAAVISVKVAEPQFEGQTKTKLGNTEVKSFVQKICNEQLQHWFEANPAEAKTVVNKAVSSAQARIAARKARELVRRKSATDIGGLPGKLADCRSTDPSKSELYVVEGDSAGGSAKSGRDSMFQAILPLRGKIINVEKARIDRVLKNTEVQSIITALGTGIHDEFDISKLRYHKIVLMADADVDGQHISTLLLTLLFRFMKPLVENGHIFLAQPPLYKLKWQRSEPEFAYSDRERDGLLEAGRAAGKKINVDDGIQRYKGLGEMDAKELWETTMDPSVRVLRQVTLDDAAAADELFSILMGEDVEARRSFITRNAKDVRFLDV

> <PDB ID(s) of Target Chain>
4BAE

> <UniProt (SwissProt) Recommended Name of Target Chain>
DNA gyrase subunit B

> <UniProt (SwissProt) Entry Name of Target Chain>
GYRB_MYCSM

> <UniProt (SwissProt) Primary ID of Target Chain>
P0C559

> <UniProt (SwissProt) Secondary ID(s) of Target Chain>
P48355,Q59555

> <UniProt (SwissProt) Alternative ID(s) of Target Chain>


> <UniProt (TrEMBL) Submitted Name of Target Chain>


> <UniProt (TrEMBL) Entry Name of Target Chain>


> <UniProt (TrEMBL) Primary ID of Target Chain>


> <UniProt (TrEMBL) Secondary ID(s) of Target Chain>


> <UniProt (TrEMBL) Alternative ID(s) of Target Chain>


$$$$

  SciTegic12211722582D

 26 28  0  0  0  0            999 V2000
   10.2005  -11.1426    0.0000 O   0  0
    9.7919  -10.4335    0.0000 C   0  0
    8.9706  -10.4335    0.0000 C   0  0
    8.4864   -9.7703    0.0000 C   0  0
    7.7091  -10.0249    0.0000 C   0  0
    7.0459   -9.5407    0.0000 Br  0  0
    7.7091  -10.8421    0.0000 C   0  0
    7.0459  -11.3264    0.0000 Br  0  0
    8.4864  -11.0968    0.0000 N   0  0
   10.2005   -9.7244    0.0000 N   0  0
   11.0219   -9.7244    0.0000 C   0  0
   11.5020  -10.3877    0.0000 N   0  0
   12.2834  -10.1330    0.0000 C   0  0
   12.9924  -10.5416    0.0000 C   0  0
   13.7015  -10.1330    0.0000 C   0  0
   13.7015   -9.3117    0.0000 C   0  0
   14.4106   -8.9031    0.0000 N   0  0
   15.1238   -9.3117    0.0000 C   0  0
   15.1238  -10.1330    0.0000 C   0  0
   15.8329  -10.5416    0.0000 C   0  0
   16.5420  -10.1330    0.0000 O   0  0
   15.8329  -11.3629    0.0000 O   0  0
   15.8329   -8.9031    0.0000 O   0  0
   12.9924   -8.9031    0.0000 C   0  0
   12.2834   -9.3117    0.0000 C   0  0
   11.5020   -9.0612    0.0000 S   0  0
  1  2  2  0
  2  3  1  0
  3  4  2  0
  4  5  1  0
  5  6  1  0
  5  7  2  0
  7  8  1  0
  7  9  1  0
  3  9  1  0
  2 10  1  0
 10 11  1  0
 11 12  2  0
 12 13  1  0
 13 14  2  0
 14 15  1  0
 15 16  2  0
 16 17  1  0
 17 18  1  0
 18 19  1  0
 19 20  1  0
 20 21  1  0
 20 22  2  0
 18 23  2  0
 16 24  1  0
 24 25  2  0
 13 25  1  0
 25 26  1  0
 11 26  1  0
M  END
> <From> 
www.bindingDB.org

> <BindingDB Reactant_set_id>
50524131

> <Ligand InChI>
InChI=1S/C15H10Br2N4O4S/c16-7-4-9(19-13(7)17)14(25)21-15-20-8-2-1-6(3-10(8)26-15)18-11(22)5-12(23)24/h1-4,19H,5H2,(H,18,22)(H,23,24)(H,20,21,25)

> <Ligand InChI Key>
KCVOBGFSEGXGIM-UHFFFAOYSA-N

> <BindingDB MonomerID>
50198320

> <BindingDB Ligand Name>
CHEMBL3936438

> <Target Name Assigned by Curator or DataSource>
DNA gyrase

> <Target Source Organism According to Curator or DataSource>
Staphylococcus aureus

> <Ki (nM)>


> <IC50 (nM)>
 5600

> <Kd (nM)>


> <EC50 (nM)>


> <kon (M-1-s-1)>


> <koff (s-1)>


> <pH>


> <Temp C>


> <Curation/DataSource>
ChEMBL

> <Article DOI>
10.1021/acs.jmedchem.6b00864

> <PMID>
27541007

> <PubChem AID>


> <Patent Number>


> <Authors>
Gjorgjieva, M; Tomaic, T; Barancokova, M; Katsamakas, S; Ila, J; Tammela, P; Peterlin Maic, L; Kikelj, D

> <Institution>
University of Ljubljana

> <Link to Ligand in BindingDB>
http://www.bindingdb.org/bind/chemsearch/marvin/MolStructure.jsp?monomerid=50198320

> <Link to Ligand-Target Pair in BindingDB>
http://www.bindingdb.org/jsp/dbsearch/PrimarySearch_ki.jsp?energyterm=kJ/mole&tag=pol&polymerid=2626&target=DNA+gyrase&column=ki&startPg=0&Increment=50&submit=Search

> <Link to Ligand-Target Pair in BindingDB>
http://www.bindingdb.org/jsp/dbsearch/PrimarySearch_ki.jsp?energyterm=kJ/mole&tag=r21&monomerid=50198320&enzyme=DNA+gyrase&column=ki&startPg=0&Increment=50&submit=Search

> <Ligand HET ID in PDB>


> <PDB ID(s) for Ligand-Target Complex>


> <PubChem CID>
134148795

> <PubChem SID>
375978204

> <ChEBI ID of Ligand>


> <ChEMBL ID of Ligand>


> <DrugBank ID of Ligand>


> <IUPHAR_GRAC ID of Ligand>


> <KEGG ID of Ligand>


> <ZINC ID of Ligand>


> <Number of Protein Chains in Target (>1 implies a multichain complex)>
1

> <BindingDB Target Chain Sequence>
MVTALSDVNNTDNYGAGQIQVLEGLEAVRKRPGMYIGSTSERGLHHLVWEIVDNSIDEALAGYANQIEVVIEKDNWIKVTDNGRGIPVDIQEKMGRPAVEVILTVLHAGGKFGGGGYKVSGGLHGVGSSVVNALSQDLEVYVHRNETIYHQAYKKGVPQFDLKEVGTTDKTGTVIRFKADGEIFTETTVYNYETLQQRIRELAFLNKGIQITLRDERDEENVREDSYHYEGGIKSYVELLNENKEPIHDEPIYIHQSKDDIEVEIAIQYNSGYATNLLTYANNIHTYEGGTHEDGFKRALTRVLNSYGLSSKIMKEEKDRLSGEDTREGMTAIISIKHGDPQFEGQTKTKLGNSEVRQVVDKLFSEHFERFLYENPQVARTVVEKGIMAARARVAAKKAREVTRRKSALDVASLPGKLADCSSKSPEECEIFLVEGDSAGGSTKSGRDSRTQAILPLRGKILNVEKARLDRILNNNEIRQMITAFGTGIGGDFDLAKARYHKIVIMTDADVDGAHIRTLLLTFFYRFMRPLIEAGYVYIAQPPLYKLTQGKQKYYVYNDRELDKLKSELNPTPKWSIARYKGLGEMNADQLWETTMNPEHRALLQVKLEDAIEADQTFEMLMGDVVENRRQFIEDNAVYANLDF

> <PDB ID(s) of Target Chain>


> <UniProt (SwissProt) Recommended Name of Target Chain>
DNA gyrase subunit B

> <UniProt (SwissProt) Entry Name of Target Chain>
GYRB_STAAU

> <UniProt (SwissProt) Primary ID of Target Chain>
P0A0K8

> <UniProt (SwissProt) Secondary ID(s) of Target Chain>
P20832

> <UniProt (SwissProt) Alternative ID(s) of Target Chain>


> <UniProt (TrEMBL) Submitted Name of Target Chain>


> <UniProt (TrEMBL) Entry Name of Target Chain>


> <UniProt (TrEMBL) Primary ID of Target Chain>


> <UniProt (TrEMBL) Secondary ID(s) of Target Chain>


> <UniProt (TrEMBL) Alternative ID(s) of Target Chain>


$$$$

  SciTegic12201720312D

 27 30  0  0  0  0            999 V2000
   11.9789   -9.7795    0.0000 N   0  0
   11.2716  -10.1912    0.0000 C   0  0
   11.2751  -11.0084    0.0000 C   0  0
   11.9860  -11.4139    0.0000 N   0  0
   12.6892  -11.0063    0.0000 C   0  0
   12.6897  -10.1891    0.0000 C   0  0
   11.9794   -8.9623    0.0000 C   0  0
   11.2685   -8.5568    0.0000 O   0  0
   12.6826   -8.5547    0.0000 N   0  0
   11.9926  -13.8654    0.0000 N   0  0
   12.6958  -13.4579    0.0000 C   0  0
   12.6963  -12.6407    0.0000 C   0  0
   11.9896  -12.2311    0.0000 C   0  0
   11.2823  -12.6427    0.0000 C   0  0
   10.5714  -12.2372    0.0000 C   0  0
    9.8641  -12.6489    0.0000 C   0  0
    9.8677  -13.4661    0.0000 C   0  0
   10.5744  -13.8716    0.0000 C   0  0
   11.2817  -13.4599    0.0000 C   0  0
    9.1604  -13.8737    0.0000 Cl  0  0
   12.6790   -7.7376    0.0000 C   0  0
   13.3863   -7.3259    0.0000 C   0  0
   14.0972   -7.7314    0.0000 C   0  0
   14.8045   -7.3197    0.0000 C   0  0
   14.8009   -6.5025    0.0000 C   0  0
   14.0942   -6.0970    0.0000 C   0  0
   13.3869   -6.5087    0.0000 C   0  0
  1  2  1  0
  2  3  1  0
  3  4  1  0
  4  5  1  0
  5  6  1  0
  1  6  1  0
  7  8  2  0
  7  9  1  0
  1  7  1  0
 10 11  2  0
 11 12  1  0
 12 13  2  0
 13 14  1  0
 14 15  2  0
 15 16  1  0
 16 17  2  0
 17 18  1  0
 18 19  2  0
 10 19  1  0
 14 19  1  0
 17 20  1  0
  4 13  1  0
 21 22  1  0
 22 23  1  0
 23 24  2  0
 24 25  1  0
 25 26  2  0
 26 27  1  0
 22 27  2  0
  9 21  1  0
M  END
> <From> 
www.bindingDB.org

> <BindingDB Reactant_set_id>
50528065

> <Ligand InChI>
InChI=1S/C21H21ClN4O/c22-17-6-7-18-19(14-17)23-9-8-20(18)25-10-12-26(13-11-25)21(27)24-15-16-4-2-1-3-5-16/h1-9,14H,10-13,15H2,(H,24,27)

> <Ligand InChI Key>
NSGZRTYLULERBL-UHFFFAOYSA-N

> <BindingDB MonomerID>
50202020

> <BindingDB Ligand Name>
CHEMBL3898197

> <Target Name Assigned by Curator or DataSource>
DNA gyrase subunit B

> <Target Source Organism According to Curator or DataSource>


> <Ki (nM)>


> <IC50 (nM)>
 6100

> <Kd (nM)>


> <EC50 (nM)>


> <kon (M-1-s-1)>


> <koff (s-1)>


> <pH>


> <Temp C>


> <Curation/DataSource>
ChEMBL

> <Article DOI>
10.1016/j.ejmech.2016.06.042

> <PMID>
27371925

> <PubChem AID>


> <Patent Number>


> <Authors>
Jeankumar, VU; Reshma, RS; Vats, R; Janupally, R; Saxena, S; Yogeeswari, P; Sriram, D

> <Institution>
Birla Institute of Technology&amp; Science-Pilani

> <Link to Ligand in BindingDB>
http://www.bindingdb.org/bind/chemsearch/marvin/MolStructure.jsp?monomerid=50202020

> <Link to Ligand-Target Pair in BindingDB>
http://www.bindingdb.org/jsp/dbsearch/PrimarySearch_ki.jsp?energyterm=kJ/mole&tag=pol&polymerid=50006452&target=DNA+gyrase+subunit+B&column=ki&startPg=0&Increment=50&submit=Search

> <Link to Ligand-Target Pair in BindingDB>
http://www.bindingdb.org/jsp/dbsearch/PrimarySearch_ki.jsp?energyterm=kJ/mole&tag=r21&monomerid=50202020&enzyme=DNA+gyrase+subunit+B&column=ki&startPg=0&Increment=50&submit=Search

> <Ligand HET ID in PDB>


> <PDB ID(s) for Ligand-Target Complex>


> <PubChem CID>
21101699

> <PubChem SID>
375979579

> <ChEBI ID of Ligand>


> <ChEMBL ID of Ligand>


> <DrugBank ID of Ligand>


> <IUPHAR_GRAC ID of Ligand>


> <KEGG ID of Ligand>


> <ZINC ID of Ligand>


> <Number of Protein Chains in Target (>1 implies a multichain complex)>
1

> <BindingDB Target Chain Sequence>
MAAQKNNAPKEYGADSITILEGLEAVRKRPGMYIGSTGERGLHHLIWEVVDNAVDEAMAGFATRVDVKIHADGSVEVRDDGRGIPVEMHATGMPTIDVVMTQLHAGGKFDGETYAVSGGLHGVGVSVVNALSTRLEATVLRDGYEWFQYYDRSVPGKLKQGGETKETGTTIRFWADPEIFETTDYNFETVARRLQEMAFLNKGLTIELTDERVTAEEVVDDVVKDTAEAPKTADEKAAEATGPSKVKHRVFHYPGGLVDYVKHINRTKTPIQQSIIDFDGKGPGHEVEIAMQWNAGYSESVHTFANTINTHEGGTHEEGFRAALTSVVNRYAKDKKLLKDKDPNLTGDDIREGLAAVISVKVAEPQFEGQTKTKLGNTEVKSFVQKICNEQLQHWFEANPAEAKTVVNKAVSSAQARIAARKARELVRRKSATDIGGLPGKLADCRSTDPSKSELYVVEGDSAGGSAKSGRDSMFQAILPLRGKIINVEKARIDRVLKNTEVQSIITALGTGIHDEFDISKLRYHKIVLMADADVDGQHISTLLLTLLFRFMKPLVENGHIFLAQPPLYKLKWQRSEPEFAYSDRERDGLLEAGRAAGKKINVDDGIQRYKGLGEMDAKELWETTMDPSVRVLRQVTLDDAAAADELFSILMGEDVEARRSFITRNAKDVRFLDV

> <PDB ID(s) of Target Chain>
4BAE

> <UniProt (SwissProt) Recommended Name of Target Chain>
DNA gyrase subunit B

> <UniProt (SwissProt) Entry Name of Target Chain>
GYRB_MYCSM

> <UniProt (SwissProt) Primary ID of Target Chain>
P0C559

> <UniProt (SwissProt) Secondary ID(s) of Target Chain>
P48355,Q59555

> <UniProt (SwissProt) Alternative ID(s) of Target Chain>


> <UniProt (TrEMBL) Submitted Name of Target Chain>


> <UniProt (TrEMBL) Entry Name of Target Chain>


> <UniProt (TrEMBL) Primary ID of Target Chain>


> <UniProt (TrEMBL) Secondary ID(s) of Target Chain>


> <UniProt (TrEMBL) Alternative ID(s) of Target Chain>


$$$$

  SciTegic02271514552D

 31 34  0  0  0  0            999 V2000
   11.6210   -6.0447    0.0000 O   0  0
   12.1059   -5.3771    0.0000 C   0  0
   11.6210   -4.7097    0.0000 C   0  0
   10.8363   -4.9646    0.0000 C   0  0
   10.8363   -5.7896    0.0000 C   0  0
   10.1219   -4.5522    0.0000 C   0  0
    9.4074   -4.9646    0.0000 C   0  0
    9.4074   -5.7896    0.0000 C   0  0
   10.1219   -6.2021    0.0000 C   0  0
   12.9309   -5.3771    0.0000 C   0  0
   13.3434   -6.0917    0.0000 O   0  0
   13.3434   -4.6627    0.0000 O   0  0
    8.6928   -4.5522    0.0000 N   0  0
    7.9784   -4.9646    0.0000 C   0  0
    7.2639   -4.5522    0.0000 C   0  0
    7.2639   -3.7272    0.0000 N   0  0
    7.9784   -3.3147    0.0000 C   0  0
    8.6928   -3.7272    0.0000 C   0  0
    6.5494   -3.3147    0.0000 C   0  0
    5.8350   -3.7272    0.0000 C   0  0
    5.1205   -3.3147    0.0000 C   0  0
    6.5494   -2.4897    0.0000 O   0  0
    4.4060   -3.7272    0.0000 C   0  0
    4.4060   -4.5522    0.0000 C   0  0
    3.6916   -4.9646    0.0000 C   0  0
    2.9771   -4.5522    0.0000 C   0  0
    2.9771   -3.7272    0.0000 C   0  0
    3.6916   -3.3147    0.0000 C   0  0
    2.2626   -4.9646    0.0000 F   0  0
   14.1684   -4.6627    0.0000 C   0  0
   14.5809   -3.9482    0.0000 C   0  0
  1  2  1  0
  2  3  2  0
  3  4  1  0
  4  5  1  0
  1  5  1  0
  6  7  1  0
  7  8  2  0
  8  9  1  0
  5  9  2  0
  4  6  2  0
 10 11  2  0
 10 12  1  0
  2 10  1  0
 13 14  1  0
 14 15  1  0
 15 16  1  0
 16 17  1  0
 17 18  1  0
 13 18  1  0
 19 20  1  0
 20 21  1  0
 19 22  2  0
 23 24  1  0
 24 25  2  0
 25 26  1  0
 26 27  2  0
 27 28  1  0
 23 28  2  0
 26 29  1  0
 21 23  1  0
 16 19  1  0
  7 13  1  0
 30 31  1  0
 12 30  1  0
M  END
> <From> 
www.bindingDB.org

> <BindingDB Reactant_set_id>
50369956

> <Ligand InChI>
InChI=1S/C24H25FN2O4/c1-2-30-24(29)22-16-18-15-20(8-9-21(18)31-22)26-11-13-27(14-12-26)23(28)10-5-17-3-6-19(25)7-4-17/h3-4,6-9,15-16H,2,5,10-14H2,1H3

> <Ligand InChI Key>
ZSEHHIQFHZHXHO-UHFFFAOYSA-N

> <BindingDB MonomerID>
50100689

> <BindingDB Ligand Name>
CHEMBL3323160

> <Target Name Assigned by Curator or DataSource>
DNA gyrase subunit B

> <Target Source Organism According to Curator or DataSource>


> <Ki (nM)>


> <IC50 (nM)>
 6140

> <Kd (nM)>


> <EC50 (nM)>


> <kon (M-1-s-1)>


> <koff (s-1)>


> <pH>


> <Temp C>


> <Curation/DataSource>
ChEMBL

> <Article DOI>
10.1016/j.bmc.2014.06.041

> <PMID>
25129171

> <PubChem AID>


> <Patent Number>


> <Authors>
Renuka, J; Reddy, KI; Srihari, K; Jeankumar, VU; Shravan, M; Sridevi, JP; Yogeeswari, P; Babu, KS; Sriram, D

> <Institution>
Institute of Technology&amp; Science-Pilani

> <Link to Ligand in BindingDB>
http://www.bindingdb.org/bind/chemsearch/marvin/MolStructure.jsp?monomerid=50100689

> <Link to Ligand-Target Pair in BindingDB>
http://www.bindingdb.org/jsp/dbsearch/PrimarySearch_ki.jsp?energyterm=kJ/mole&tag=pol&polymerid=50006452&target=DNA+gyrase+subunit+B&column=ki&startPg=0&Increment=50&submit=Search

> <Link to Ligand-Target Pair in BindingDB>
http://www.bindingdb.org/jsp/dbsearch/PrimarySearch_ki.jsp?energyterm=kJ/mole&tag=r21&monomerid=50100689&enzyme=DNA+gyrase+subunit+B&column=ki&startPg=0&Increment=50&submit=Search

> <Ligand HET ID in PDB>


> <PDB ID(s) for Ligand-Target Complex>


> <PubChem CID>
118710572

> <PubChem SID>
103997417

> <ChEBI ID of Ligand>


> <ChEMBL ID of Ligand>
CHEMBL72603

> <DrugBank ID of Ligand>


> <IUPHAR_GRAC ID of Ligand>


> <KEGG ID of Ligand>


> <ZINC ID of Ligand>
ZINC26296194

> <Number of Protein Chains in Target (>1 implies a multichain complex)>
1

> <BindingDB Target Chain Sequence>
MAAQKNNAPKEYGADSITILEGLEAVRKRPGMYIGSTGERGLHHLIWEVVDNAVDEAMAGFATRVDVKIHADGSVEVRDDGRGIPVEMHATGMPTIDVVMTQLHAGGKFDGETYAVSGGLHGVGVSVVNALSTRLEATVLRDGYEWFQYYDRSVPGKLKQGGETKETGTTIRFWADPEIFETTDYNFETVARRLQEMAFLNKGLTIELTDERVTAEEVVDDVVKDTAEAPKTADEKAAEATGPSKVKHRVFHYPGGLVDYVKHINRTKTPIQQSIIDFDGKGPGHEVEIAMQWNAGYSESVHTFANTINTHEGGTHEEGFRAALTSVVNRYAKDKKLLKDKDPNLTGDDIREGLAAVISVKVAEPQFEGQTKTKLGNTEVKSFVQKICNEQLQHWFEANPAEAKTVVNKAVSSAQARIAARKARELVRRKSATDIGGLPGKLADCRSTDPSKSELYVVEGDSAGGSAKSGRDSMFQAILPLRGKIINVEKARIDRVLKNTEVQSIITALGTGIHDEFDISKLRYHKIVLMADADVDGQHISTLLLTLLFRFMKPLVENGHIFLAQPPLYKLKWQRSEPEFAYSDRERDGLLEAGRAAGKKINVDDGIQRYKGLGEMDAKELWETTMDPSVRVLRQVTLDDAAAADELFSILMGEDVEARRSFITRNAKDVRFLDV

> <PDB ID(s) of Target Chain>
4BAE

> <UniProt (SwissProt) Recommended Name of Target Chain>
DNA gyrase subunit B

> <UniProt (SwissProt) Entry Name of Target Chain>
GYRB_MYCSM

> <UniProt (SwissProt) Primary ID of Target Chain>
P0C559

> <UniProt (SwissProt) Secondary ID(s) of Target Chain>
P48355,Q59555

> <UniProt (SwissProt) Alternative ID(s) of Target Chain>


> <UniProt (TrEMBL) Submitted Name of Target Chain>


> <UniProt (TrEMBL) Entry Name of Target Chain>


> <UniProt (TrEMBL) Primary ID of Target Chain>


> <UniProt (TrEMBL) Secondary ID(s) of Target Chain>


> <UniProt (TrEMBL) Alternative ID(s) of Target Chain>


$$$$

  Mrv0541 11171616332D          

 30 33  0  0  0  0            999 V2000
   15.8628  -12.9091    0.0000 O   0  0  0  0  0  0  0  0  0  0  0  0
   16.3477  -12.2417    0.0000 C   0  0  0  0  0  0  0  0  0  0  0  0
   15.8628  -11.5742    0.0000 C   0  0  0  0  0  0  0  0  0  0  0  0
   15.0782  -11.8292    0.0000 C   0  0  0  0  0  0  0  0  0  0  0  0
   15.0782  -12.6542    0.0000 C   0  0  0  0  0  0  0  0  0  0  0  0
   14.3637  -11.4167    0.0000 C   0  0  0  0  0  0  0  0  0  0  0  0
   13.6493  -11.8292    0.0000 C   0  0  0  0  0  0  0  0  0  0  0  0
   13.6493  -12.6542    0.0000 C   0  0  0  0  0  0  0  0  0  0  0  0
   14.3637  -13.0667    0.0000 C   0  0  0  0  0  0  0  0  0  0  0  0
   17.1727  -12.2417    0.0000 C   0  0  0  0  0  0  0  0  0  0  0  0
   17.5852  -12.9561    0.0000 O   0  0  0  0  0  0  0  0  0  0  0  0
   17.5852  -11.5272    0.0000 O   0  0  0  0  0  0  0  0  0  0  0  0
   12.9348  -11.4167    0.0000 N   0  0  0  0  0  0  0  0  0  0  0  0
   12.2203  -11.8292    0.0000 C   0  0  0  0  0  0  0  0  0  0  0  0
   11.5058  -11.4167    0.0000 C   0  0  0  0  0  0  0  0  0  0  0  0
   11.5058  -10.5917    0.0000 N   0  0  0  0  0  0  0  0  0  0  0  0
   12.2203  -10.1792    0.0000 C   0  0  0  0  0  0  0  0  0  0  0  0
   12.9348  -10.5917    0.0000 C   0  0  0  0  0  0  0  0  0  0  0  0
   10.7914  -10.1792    0.0000 C   0  0  0  0  0  0  0  0  0  0  0  0
   10.0769  -10.5917    0.0000 C   0  0  0  0  0  0  0  0  0  0  0  0
   10.0769  -11.4167    0.0000 C   0  0  0  0  0  0  0  0  0  0  0  0
    9.3624  -11.8292    0.0000 C   0  0  0  0  0  0  0  0  0  0  0  0
    8.6480  -11.4167    0.0000 C   0  0  0  0  0  0  0  0  0  0  0  0
    8.6480  -10.5917    0.0000 C   0  0  0  0  0  0  0  0  0  0  0  0
    9.3624  -10.1792    0.0000 C   0  0  0  0  0  0  0  0  0  0  0  0
   10.7914   -9.3542    0.0000 O   0  0  0  0  0  0  0  0  0  0  0  0
    9.3624   -9.3542    0.0000 F   0  0  0  0  0  0  0  0  0  0  0  0
   10.7914  -11.8292    0.0000 F   0  0  0  0  0  0  0  0  0  0  0  0
   18.4102  -11.5272    0.0000 C   0  0  0  0  0  0  0  0  0  0  0  0
   18.8227  -10.8127    0.0000 C   0  0  0  0  0  0  0  0  0  0  0  0
  1  2  4  0  0  0  0
  2  3  4  0  0  0  0
  3  4  4  0  0  0  0
  4  5  4  0  0  0  0
  1  5  4  0  0  0  0
  6  7  4  0  0  0  0
  7  8  4  0  0  0  0
  8  9  4  0  0  0  0
  5  9  4  0  0  0  0
  4  6  4  0  0  0  0
 10 11  2  0  0  0  0
 10 12  1  0  0  0  0
  2 10  1  0  0  0  0
 13 14  1  0  0  0  0
 14 15  1  0  0  0  0
 15 16  1  0  0  0  0
 16 17  1  0  0  0  0
 17 18  1  0  0  0  0
 13 18  1  0  0  0  0
 19 20  1  0  0  0  0
 20 21  4  0  0  0  0
 21 22  4  0  0  0  0
 22 23  4  0  0  0  0
 23 24  4  0  0  0  0
 24 25  4  0  0  0  0
 20 25  4  0  0  0  0
 19 26  2  0  0  0  0
 25 27  1  0  0  0  0
 21 28  1  0  0  0  0
 16 19  1  0  0  0  0
  7 13  1  0  0  0  0
 29 30  1  0  0  0  0
 12 29  1  0  0  0  0
M  END
> <From> 
www.bindingDB.org

> <BindingDB Reactant_set_id>
50369870

> <Ligand InChI>
InChI=1S/C22H20F2N2O4/c1-2-29-22(28)19-13-14-12-15(6-7-18(14)30-19)25-8-10-26(11-9-25)21(27)20-16(23)4-3-5-17(20)24/h3-7,12-13H,2,8-11H2,1H3

> <Ligand InChI Key>
BCSQLYOXOJXFHE-UHFFFAOYSA-N

> <BindingDB MonomerID>
50100643

> <BindingDB Ligand Name>
CHEMBL3323252

> <Target Name Assigned by Curator or DataSource>
DNA gyrase subunit B

> <Target Source Organism According to Curator or DataSource>


> <Ki (nM)>


> <IC50 (nM)>
 6210

> <Kd (nM)>


> <EC50 (nM)>


> <kon (M-1-s-1)>


> <koff (s-1)>


> <pH>


> <Temp C>


> <Curation/DataSource>
ChEMBL

> <Article DOI>
10.1016/j.bmc.2014.06.041

> <PMID>
25129171

> <PubChem AID>


> <Patent Number>


> <Authors>
Renuka, J; Reddy, KI; Srihari, K; Jeankumar, VU; Shravan, M; Sridevi, JP; Yogeeswari, P; Babu, KS; Sriram, D

> <Institution>
Institute of Technology&amp; Science-Pilani

> <Link to Ligand in BindingDB>
http://www.bindingdb.org/bind/chemsearch/marvin/MolStructure.jsp?monomerid=50100643

> <Link to Ligand-Target Pair in BindingDB>
http://www.bindingdb.org/jsp/dbsearch/PrimarySearch_ki.jsp?energyterm=kJ/mole&tag=pol&polymerid=50006452&target=DNA+gyrase+subunit+B&column=ki&startPg=0&Increment=50&submit=Search

> <Link to Ligand-Target Pair in BindingDB>
http://www.bindingdb.org/jsp/dbsearch/PrimarySearch_ki.jsp?energyterm=kJ/mole&tag=r21&monomerid=50100643&enzyme=DNA+gyrase+subunit+B&column=ki&startPg=0&Increment=50&submit=Search

> <Ligand HET ID in PDB>


> <PDB ID(s) for Ligand-Target Complex>


> <PubChem CID>
118710633

> <PubChem SID>
318490752

> <ChEBI ID of Ligand>


> <ChEMBL ID of Ligand>


> <DrugBank ID of Ligand>


> <IUPHAR_GRAC ID of Ligand>


> <KEGG ID of Ligand>


> <ZINC ID of Ligand>


> <Number of Protein Chains in Target (>1 implies a multichain complex)>
1

> <BindingDB Target Chain Sequence>
MAAQKNNAPKEYGADSITILEGLEAVRKRPGMYIGSTGERGLHHLIWEVVDNAVDEAMAGFATRVDVKIHADGSVEVRDDGRGIPVEMHATGMPTIDVVMTQLHAGGKFDGETYAVSGGLHGVGVSVVNALSTRLEATVLRDGYEWFQYYDRSVPGKLKQGGETKETGTTIRFWADPEIFETTDYNFETVARRLQEMAFLNKGLTIELTDERVTAEEVVDDVVKDTAEAPKTADEKAAEATGPSKVKHRVFHYPGGLVDYVKHINRTKTPIQQSIIDFDGKGPGHEVEIAMQWNAGYSESVHTFANTINTHEGGTHEEGFRAALTSVVNRYAKDKKLLKDKDPNLTGDDIREGLAAVISVKVAEPQFEGQTKTKLGNTEVKSFVQKICNEQLQHWFEANPAEAKTVVNKAVSSAQARIAARKARELVRRKSATDIGGLPGKLADCRSTDPSKSELYVVEGDSAGGSAKSGRDSMFQAILPLRGKIINVEKARIDRVLKNTEVQSIITALGTGIHDEFDISKLRYHKIVLMADADVDGQHISTLLLTLLFRFMKPLVENGHIFLAQPPLYKLKWQRSEPEFAYSDRERDGLLEAGRAAGKKINVDDGIQRYKGLGEMDAKELWETTMDPSVRVLRQVTLDDAAAADELFSILMGEDVEARRSFITRNAKDVRFLDV

> <PDB ID(s) of Target Chain>
4BAE

> <UniProt (SwissProt) Recommended Name of Target Chain>
DNA gyrase subunit B

> <UniProt (SwissProt) Entry Name of Target Chain>
GYRB_MYCSM

> <UniProt (SwissProt) Primary ID of Target Chain>
P0C559

> <UniProt (SwissProt) Secondary ID(s) of Target Chain>
P48355,Q59555

> <UniProt (SwissProt) Alternative ID(s) of Target Chain>


> <UniProt (TrEMBL) Submitted Name of Target Chain>


> <UniProt (TrEMBL) Entry Name of Target Chain>


> <UniProt (TrEMBL) Primary ID of Target Chain>


> <UniProt (TrEMBL) Secondary ID(s) of Target Chain>


> <UniProt (TrEMBL) Alternative ID(s) of Target Chain>


$$$$

  SciTegic02271514412D

 27 29  0  0  0  0            999 V2000
   20.0839   -2.7405    0.0000 C   0  0
   19.2598   -2.7780    0.0000 C   0  0
   18.8842   -3.5078    0.0000 C   0  0  1  0  0  0
   19.3244   -4.2006    0.0000 C   0  0  2  0  0  0
   20.1485   -4.1631    0.0000 C   0  0
   20.5325   -3.4329    0.0000 N   0  0
   18.0601   -3.5452    0.0000 N   0  0
   17.6156   -2.8502    0.0000 C   0  0
   16.7914   -2.8876    0.0000 C   0  0
   17.9953   -2.1177    0.0000 O   0  0
   21.3567   -3.3955    0.0000 C   0  0
   16.2800   -2.2398    0.0000 C   0  0
   15.5078   -2.5301    0.0000 C   0  0
   15.5453   -3.3543    0.0000 C   0  0
   16.3406   -3.5732    0.0000 N   0  0
   21.8693   -4.0383    0.0000 N   0  0
   22.6416   -3.7481    0.0000 C   0  0
   22.6042   -2.9239    0.0000 C   0  0
   21.8088   -2.7049    0.0000 S   0  0
   23.2489   -2.4091    0.0000 C   0  0
   24.0171   -2.7101    0.0000 O   0  0
   23.1255   -1.5934    0.0000 O   0  0
   14.9005   -3.8690    0.0000 C   0  0
   16.5013   -1.4451    0.0000 Cl  0  0
   14.8190   -2.0760    0.0000 Cl  0  0
   18.9436   -4.9324    0.0000 O   0  0
   18.1194   -4.9686    0.0000 C   0  0
  1  2  1  0
  1  6  1  0
  2  3  1  0
  3  4  1  0
  4  5  1  0
  5  6  1  0
  3  7  1  1
  7  8  1  0
  8  9  1  0
  8 10  2  0
  6 11  1  0
  9 12  2  0
 12 13  1  0
 13 14  2  0
 14 15  1  0
 15  9  1  0
 11 16  2  0
 16 17  1  0
 17 18  2  0
 18 19  1  0
 19 11  1  0
 18 20  1  0
 20 21  1  0
 20 22  2  0
 14 23  1  0
 12 24  1  0
 13 25  1  0
  4 26  1  6
 26 27  1  0
M  END
> <From> 
www.bindingDB.org

> <BindingDB Reactant_set_id>
50271383

> <Ligand InChI>
InChI=1S/C16H18Cl2N4O4S/c1-7-11(17)12(18)13(20-7)14(23)21-8-3-4-22(6-9(8)26-2)16-19-5-10(27-16)15(24)25/h5,8-9,20H,3-4,6H2,1-2H3,(H,21,23)(H,24,25)/t8-,9-/m0/s1

> <Ligand InChI Key>
VJLIVOQJQIHFHR-IUCAKERBSA-N

> <BindingDB MonomerID>
50047317

> <BindingDB Ligand Name>
CHEMBL3314526

> <Target Name Assigned by Curator or DataSource>
DNA Gyrase Subunit B

> <Target Source Organism According to Curator or DataSource>
Staphylococcus aureus

> <Ki (nM)>


> <IC50 (nM)>
 6400

> <Kd (nM)>


> <EC50 (nM)>


> <kon (M-1-s-1)>


> <koff (s-1)>


> <pH>


> <Temp C>


> <Curation/DataSource>
ChEMBL

> <Article DOI>
10.1021/jm500462x

> <PMID>
24959892

> <PubChem AID>


> <Patent Number>


> <Authors>
Basarab, GS; Hill, PJ; Garner, CE; Hull, K; Green, O; Sherer, BA; Dangel, PB; Manchester, JI; Bist, S; Hauck, S; Zhou, F; Uria-Nickelsen, M; Illingworth, R; Alm, R; Rooney, M; Eakin, AE

> <Institution>
AstraZeneca

> <Link to Ligand in BindingDB>
http://www.bindingdb.org/bind/chemsearch/marvin/MolStructure.jsp?monomerid=50047317

> <Link to Ligand-Target Pair in BindingDB>
http://www.bindingdb.org/jsp/dbsearch/PrimarySearch_ki.jsp?energyterm=kJ/mole&tag=pol&polymerid=2626&target=DNA+Gyrase+Subunit+B&column=ki&startPg=0&Increment=50&submit=Search

> <Link to Ligand-Target Pair in BindingDB>
http://www.bindingdb.org/jsp/dbsearch/PrimarySearch_ki.jsp?energyterm=kJ/mole&tag=r21&monomerid=50047317&enzyme=DNA+Gyrase+Subunit+B&column=ki&startPg=0&Increment=50&submit=Search

> <Ligand HET ID in PDB>


> <PDB ID(s) for Ligand-Target Complex>


> <PubChem CID>
89699173

> <PubChem SID>
103977997

> <ChEBI ID of Ligand>


> <ChEMBL ID of Ligand>
CHEMBL33531

> <DrugBank ID of Ligand>


> <IUPHAR_GRAC ID of Ligand>


> <KEGG ID of Ligand>


> <ZINC ID of Ligand>
ZINC13827201

> <Number of Protein Chains in Target (>1 implies a multichain complex)>
1

> <BindingDB Target Chain Sequence>
MVTALSDVNNTDNYGAGQIQVLEGLEAVRKRPGMYIGSTSERGLHHLVWEIVDNSIDEALAGYANQIEVVIEKDNWIKVTDNGRGIPVDIQEKMGRPAVEVILTVLHAGGKFGGGGYKVSGGLHGVGSSVVNALSQDLEVYVHRNETIYHQAYKKGVPQFDLKEVGTTDKTGTVIRFKADGEIFTETTVYNYETLQQRIRELAFLNKGIQITLRDERDEENVREDSYHYEGGIKSYVELLNENKEPIHDEPIYIHQSKDDIEVEIAIQYNSGYATNLLTYANNIHTYEGGTHEDGFKRALTRVLNSYGLSSKIMKEEKDRLSGEDTREGMTAIISIKHGDPQFEGQTKTKLGNSEVRQVVDKLFSEHFERFLYENPQVARTVVEKGIMAARARVAAKKAREVTRRKSALDVASLPGKLADCSSKSPEECEIFLVEGDSAGGSTKSGRDSRTQAILPLRGKILNVEKARLDRILNNNEIRQMITAFGTGIGGDFDLAKARYHKIVIMTDADVDGAHIRTLLLTFFYRFMRPLIEAGYVYIAQPPLYKLTQGKQKYYVYNDRELDKLKSELNPTPKWSIARYKGLGEMNADQLWETTMNPEHRALLQVKLEDAIEADQTFEMLMGDVVENRRQFIEDNAVYANLDF

> <PDB ID(s) of Target Chain>


> <UniProt (SwissProt) Recommended Name of Target Chain>
DNA gyrase subunit B

> <UniProt (SwissProt) Entry Name of Target Chain>
GYRB_STAAU

> <UniProt (SwissProt) Primary ID of Target Chain>
P0A0K8

> <UniProt (SwissProt) Secondary ID(s) of Target Chain>
P20832

> <UniProt (SwissProt) Alternative ID(s) of Target Chain>


> <UniProt (TrEMBL) Submitted Name of Target Chain>


> <UniProt (TrEMBL) Entry Name of Target Chain>


> <UniProt (TrEMBL) Primary ID of Target Chain>


> <UniProt (TrEMBL) Secondary ID(s) of Target Chain>


> <UniProt (TrEMBL) Alternative ID(s) of Target Chain>


$$$$

  Mrv0541 04171609262D          

 21 22  0  0  0  0            999 V2000
    0.7145   -0.4125    0.0000 C   0  0  0  0  0  0  0  0  0  0  0  0
    0.7145    0.4125    0.0000 C   0  0  0  0  0  0  0  0  0  0  0  0
    0.0000    0.8250    0.0000 C   0  0  0  0  0  0  0  0  0  0  0  0
   -0.7145    0.4125    0.0000 C   0  0  0  0  0  0  0  0  0  0  0  0
   -0.7145   -0.4125    0.0000 C   0  0  0  0  0  0  0  0  0  0  0  0
    0.0000   -0.8250    0.0000 C   0  0  0  0  0  0  0  0  0  0  0  0
   -1.4293   -0.8252    0.0000 C   0  0  0  0  0  0  0  0  0  0  0  0
   -2.1732   -0.4848    0.0000 S   0  0  0  0  0  0  0  0  0  0  0  0
   -2.7242   -1.0988    0.0000 C   0  0  0  0  0  0  0  0  0  0  0  0
   -2.3106   -1.8127    0.0000 C   0  0  0  0  0  0  0  0  0  0  0  0
   -1.5039   -1.6399    0.0000 C   0  0  0  0  0  0  0  0  0  0  0  0
   -2.6430   -2.5667    0.0000 C   0  0  0  0  0  0  0  0  0  0  0  0
   -2.2535   -3.0995    0.0000 O   0  0  0  0  0  0  0  0  0  0  0  0
   -3.2991   -2.6379    0.0000 N   0  0  0  0  0  0  0  0  0  0  0  0
   -3.5437   -1.0123    0.0000 N   0  0  0  0  0  0  0  0  0  0  0  0
   -3.8796   -0.2582    0.0000 C   0  0  0  0  0  0  0  0  0  0  0  0
   -4.7005   -0.1715    0.0000 N   0  0  0  0  0  0  0  0  0  0  0  0
   -3.4916    0.2757    0.0000 O   0  0  0  0  0  0  0  0  0  0  0  0
   -5.0364    0.5825    0.0000 C   0  0  0  0  0  0  0  0  0  0  0  0
   -5.6927    0.6518    0.0000 C   0  0  0  0  0  0  0  0  0  0  0  0
   -4.6483    1.1164    0.0000 C   0  0  0  0  0  0  0  0  0  0  0  0
  1  2  4  0  0  0  0
  2  3  4  0  0  0  0
  3  4  4  0  0  0  0
  4  5  4  0  0  0  0
  5  6  4  0  0  0  0
  6  1  4  0  0  0  0
  7  8  4  0  0  0  0
  8  9  4  0  0  0  0
  9 10  4  0  0  0  0
 10 11  4  0  0  0  0
 11  7  4  0  0  0  0
  5  7  1  0  0  0  0
 10 12  1  0  0  0  0
 12 13  2  0  0  0  0
 12 14  1  0  0  0  0
  9 15  1  0  0  0  0
 15 16  1  0  0  0  0
 16 17  1  0  0  0  0
 16 18  2  0  0  0  0
 17 19  1  0  0  0  0
 19 20  1  0  0  0  0
 19 21  1  0  0  0  0
M  END
> <From> 
www.bindingDB.org

> <BindingDB Reactant_set_id>
50302322

> <Ligand InChI>
InChI=1S/C15H17N3O2S/c1-9(2)17-15(20)18-14-11(13(16)19)8-12(21-14)10-6-4-3-5-7-10/h3-9H,1-2H3,(H2,16,19)(H2,17,18,20)

> <Ligand InChI Key>
WDBQVEVGDMUMBD-UHFFFAOYSA-N

> <BindingDB MonomerID>
50066089

> <BindingDB Ligand Name>
CHEMBL3402936

> <Target Name Assigned by Curator or DataSource>
DNA gyrase subunit B

> <Target Source Organism According to Curator or DataSource>


> <Ki (nM)>


> <IC50 (nM)>
 6470

> <Kd (nM)>


> <EC50 (nM)>


> <kon (M-1-s-1)>


> <koff (s-1)>


> <pH>


> <Temp C>
25.00

> <Curation/DataSource>
ChEMBL

> <Article DOI>
10.1016/j.bmc.2015.02.032

> <PMID>
25766629

> <PubChem AID>


> <Patent Number>


> <Authors>
Saxena, S; Samala, G; Renuka, J; Sridevi, JP; Yogeeswari, P; Sriram, D

> <Institution>
Birla Institute of Technology&amp; Science-Pilani

> <Link to Ligand in BindingDB>
http://www.bindingdb.org/bind/chemsearch/marvin/MolStructure.jsp?monomerid=50066089

> <Link to Ligand-Target Pair in BindingDB>
http://www.bindingdb.org/jsp/dbsearch/PrimarySearch_ki.jsp?energyterm=kJ/mole&tag=pol&polymerid=50006452&target=DNA+gyrase+subunit+B&column=ki&startPg=0&Increment=50&submit=Search

> <Link to Ligand-Target Pair in BindingDB>
http://www.bindingdb.org/jsp/dbsearch/PrimarySearch_ki.jsp?energyterm=kJ/mole&tag=r21&monomerid=50066089&enzyme=DNA+gyrase+subunit+B&column=ki&startPg=0&Increment=50&submit=Search

> <Ligand HET ID in PDB>


> <PDB ID(s) for Ligand-Target Complex>


> <PubChem CID>
9922475

> <PubChem SID>
313071614

> <ChEBI ID of Ligand>


> <ChEMBL ID of Ligand>


> <DrugBank ID of Ligand>


> <IUPHAR_GRAC ID of Ligand>


> <KEGG ID of Ligand>


> <ZINC ID of Ligand>


> <Number of Protein Chains in Target (>1 implies a multichain complex)>
1

> <BindingDB Target Chain Sequence>
MAAQKNNAPKEYGADSITILEGLEAVRKRPGMYIGSTGERGLHHLIWEVVDNAVDEAMAGFATRVDVKIHADGSVEVRDDGRGIPVEMHATGMPTIDVVMTQLHAGGKFDGETYAVSGGLHGVGVSVVNALSTRLEATVLRDGYEWFQYYDRSVPGKLKQGGETKETGTTIRFWADPEIFETTDYNFETVARRLQEMAFLNKGLTIELTDERVTAEEVVDDVVKDTAEAPKTADEKAAEATGPSKVKHRVFHYPGGLVDYVKHINRTKTPIQQSIIDFDGKGPGHEVEIAMQWNAGYSESVHTFANTINTHEGGTHEEGFRAALTSVVNRYAKDKKLLKDKDPNLTGDDIREGLAAVISVKVAEPQFEGQTKTKLGNTEVKSFVQKICNEQLQHWFEANPAEAKTVVNKAVSSAQARIAARKARELVRRKSATDIGGLPGKLADCRSTDPSKSELYVVEGDSAGGSAKSGRDSMFQAILPLRGKIINVEKARIDRVLKNTEVQSIITALGTGIHDEFDISKLRYHKIVLMADADVDGQHISTLLLTLLFRFMKPLVENGHIFLAQPPLYKLKWQRSEPEFAYSDRERDGLLEAGRAAGKKINVDDGIQRYKGLGEMDAKELWETTMDPSVRVLRQVTLDDAAAADELFSILMGEDVEARRSFITRNAKDVRFLDV

> <PDB ID(s) of Target Chain>
4BAE

> <UniProt (SwissProt) Recommended Name of Target Chain>
DNA gyrase subunit B

> <UniProt (SwissProt) Entry Name of Target Chain>
GYRB_MYCSM

> <UniProt (SwissProt) Primary ID of Target Chain>
P0C559

> <UniProt (SwissProt) Secondary ID(s) of Target Chain>
P48355,Q59555

> <UniProt (SwissProt) Alternative ID(s) of Target Chain>


> <UniProt (TrEMBL) Submitted Name of Target Chain>


> <UniProt (TrEMBL) Entry Name of Target Chain>


> <UniProt (TrEMBL) Primary ID of Target Chain>


> <UniProt (TrEMBL) Secondary ID(s) of Target Chain>


> <UniProt (TrEMBL) Alternative ID(s) of Target Chain>


$$$$

  SciTegic04201612532D

 36 39  0  0  0  0            999 V2000
   -1.2964    1.4973    0.0000 N   0  0
   -2.6111    0.7486    0.0000 C   0  0
   -2.6111   -0.7486    0.0000 C   0  0
   -1.2964   -1.4973    0.0000 C   0  0
    0.0000   -0.7486    0.0000 C   0  0
    1.2964   -1.4973    0.0000 C   0  0
    2.5929   -0.7486    0.0000 C   0  0
    2.5929    0.7486    0.0000 C   0  0
    1.2964    1.4973    0.0000 C   0  0
    0.0000    0.7486    0.0000 C   0  0
   -3.9122   -1.4966    0.0000 C   0  0
   -3.9138   -2.4966    0.0000 O   0  0
   -5.2109   -0.7445    0.0000 O   0  0
   -1.2907   -2.9981    0.0000 N   0  0
   -2.5870   -3.7544    0.0000 C   0  0
   -2.5835   -5.2544    0.0000 C   0  0
   -3.8807   -6.0076    0.0000 C   0  0
   -5.1815   -5.2608    0.0000 C   0  0
   -5.1852   -3.7608    0.0000 C   0  0
   -3.8880   -3.0076    0.0000 C   0  0
   -6.4810   -6.0117    0.0000 N   0  0
   -7.7815   -5.2626    0.0000 C   0  0
   -9.0810   -6.0135    0.0000 C   0  0
  -10.3815   -5.2644    0.0000 C   0  0
  -14.2755   -7.5217    0.0000 O   0  0
  -14.2791   -6.0217    0.0000 C   0  0
  -12.9819   -5.2686    0.0000 C   0  0
  -11.6810   -6.0154    0.0000 N   0  0
  -11.6774   -7.5154    0.0000 C   0  0
  -12.9746   -8.2686    0.0000 C   0  0
   -6.5121   -1.4924    0.0000 C   0  0
   -7.5506   -0.8910    0.0000 C   0  0
    3.8926   -1.4991    0.0000 C   0  0
    3.8934   -2.6991    0.0000 F   0  0
    4.9317   -0.8987    0.0000 F   0  0
    4.9322   -2.0986    0.0000 F   0  0
  1  2  2  0
  2  3  1  0
  3  4  2  0
  4  5  1  0
  5  6  2  0
  6  7  1  0
  7  8  2  0
  8  9  1  0
  9 10  2  0
  1 10  1  0
  5 10  1  0
 11 12  2  0
 11 13  1  0
  3 11  1  0
 15 16  1  0
 16 17  2  0
 17 18  1  0
 18 19  2  0
 19 20  1  0
 15 20  2  0
 22 23  1  0
 23 24  1  0
 21 22  1  0
 25 26  1  0
 26 27  1  0
 27 28  1  0
 28 29  1  0
 29 30  1  0
 25 30  1  0
 24 28  1  0
 18 21  1  0
 14 15  1  0
  4 14  1  0
 31 32  1  0
 13 31  1  0
 33 34  1  0
 33 35  1  0
 33 36  1  0
  7 33  1  0
M  END
> <From> 
www.bindingDB.org

> <BindingDB Reactant_set_id>
50426787

> <Ligand InChI>
InChI=1S/C26H29F3N4O3/c1-2-36-25(34)22-17-31-23-9-4-18(26(27,28)29)16-21(23)24(22)32-20-7-5-19(6-8-20)30-10-3-11-33-12-14-35-15-13-33/h4-9,16-17,30H,2-3,10-15H2,1H3,(H,31,32)

> <Ligand InChI Key>
ITQPSSHZDKJILG-UHFFFAOYSA-N

> <BindingDB MonomerID>
50126834

> <BindingDB Ligand Name>
CHEMBL3628354

> <Target Name Assigned by Curator or DataSource>
DNA gyrase subunit B

> <Target Source Organism According to Curator or DataSource>


> <Ki (nM)>


> <IC50 (nM)>
 6620

> <Kd (nM)>


> <EC50 (nM)>


> <kon (M-1-s-1)>


> <koff (s-1)>


> <pH>


> <Temp C>


> <Curation/DataSource>
ChEMBL

> <Article DOI>
10.1016/j.ejmech.2015.06.032

> <PMID>
26318054

> <PubChem AID>


> <Patent Number>


> <Authors>
Medapi, B; Suryadevara, P; Renuka, J; Sridevi, JP; Yogeeswari, P; Sriram, D

> <Institution>
Birla Institute of Technology&amp;Science

> <Link to Ligand in BindingDB>
http://www.bindingdb.org/bind/chemsearch/marvin/MolStructure.jsp?monomerid=50126834

> <Link to Ligand-Target Pair in BindingDB>
http://www.bindingdb.org/jsp/dbsearch/PrimarySearch_ki.jsp?energyterm=kJ/mole&tag=pol&polymerid=50006452&target=DNA+gyrase+subunit+B&column=ki&startPg=0&Increment=50&submit=Search

> <Link to Ligand-Target Pair in BindingDB>
http://www.bindingdb.org/jsp/dbsearch/PrimarySearch_ki.jsp?energyterm=kJ/mole&tag=r21&monomerid=50126834&enzyme=DNA+gyrase+subunit+B&column=ki&startPg=0&Increment=50&submit=Search

> <Ligand HET ID in PDB>


> <PDB ID(s) for Ligand-Target Complex>


> <PubChem CID>
122193395

> <PubChem SID>
104018902

> <ChEBI ID of Ligand>


> <ChEMBL ID of Ligand>
CHEMBL37775

> <DrugBank ID of Ligand>


> <IUPHAR_GRAC ID of Ligand>


> <KEGG ID of Ligand>


> <ZINC ID of Ligand>
ZINC13494223

> <Number of Protein Chains in Target (>1 implies a multichain complex)>
1

> <BindingDB Target Chain Sequence>
MAAQKNNAPKEYGADSITILEGLEAVRKRPGMYIGSTGERGLHHLIWEVVDNAVDEAMAGFATRVDVKIHADGSVEVRDDGRGIPVEMHATGMPTIDVVMTQLHAGGKFDGETYAVSGGLHGVGVSVVNALSTRLEATVLRDGYEWFQYYDRSVPGKLKQGGETKETGTTIRFWADPEIFETTDYNFETVARRLQEMAFLNKGLTIELTDERVTAEEVVDDVVKDTAEAPKTADEKAAEATGPSKVKHRVFHYPGGLVDYVKHINRTKTPIQQSIIDFDGKGPGHEVEIAMQWNAGYSESVHTFANTINTHEGGTHEEGFRAALTSVVNRYAKDKKLLKDKDPNLTGDDIREGLAAVISVKVAEPQFEGQTKTKLGNTEVKSFVQKICNEQLQHWFEANPAEAKTVVNKAVSSAQARIAARKARELVRRKSATDIGGLPGKLADCRSTDPSKSELYVVEGDSAGGSAKSGRDSMFQAILPLRGKIINVEKARIDRVLKNTEVQSIITALGTGIHDEFDISKLRYHKIVLMADADVDGQHISTLLLTLLFRFMKPLVENGHIFLAQPPLYKLKWQRSEPEFAYSDRERDGLLEAGRAAGKKINVDDGIQRYKGLGEMDAKELWETTMDPSVRVLRQVTLDDAAAADELFSILMGEDVEARRSFITRNAKDVRFLDV

> <PDB ID(s) of Target Chain>
4BAE

> <UniProt (SwissProt) Recommended Name of Target Chain>
DNA gyrase subunit B

> <UniProt (SwissProt) Entry Name of Target Chain>
GYRB_MYCSM

> <UniProt (SwissProt) Primary ID of Target Chain>
P0C559

> <UniProt (SwissProt) Secondary ID(s) of Target Chain>
P48355,Q59555

> <UniProt (SwissProt) Alternative ID(s) of Target Chain>


> <UniProt (TrEMBL) Submitted Name of Target Chain>


> <UniProt (TrEMBL) Entry Name of Target Chain>


> <UniProt (TrEMBL) Primary ID of Target Chain>


> <UniProt (TrEMBL) Secondary ID(s) of Target Chain>


> <UniProt (TrEMBL) Alternative ID(s) of Target Chain>


$$$$

  Mrv0541 04171609262D          

 24 26  0  0  0  0            999 V2000
    0.7145   -0.4125    0.0000 C   0  0  0  0  0  0  0  0  0  0  0  0
    0.7145    0.4125    0.0000 C   0  0  0  0  0  0  0  0  0  0  0  0
    0.0000    0.8250    0.0000 C   0  0  0  0  0  0  0  0  0  0  0  0
   -0.7145    0.4125    0.0000 C   0  0  0  0  0  0  0  0  0  0  0  0
   -0.7145   -0.4125    0.0000 C   0  0  0  0  0  0  0  0  0  0  0  0
    0.0000   -0.8250    0.0000 C   0  0  0  0  0  0  0  0  0  0  0  0
   -1.4293   -0.8252    0.0000 C   0  0  0  0  0  0  0  0  0  0  0  0
   -2.1731   -0.4848    0.0000 S   0  0  0  0  0  0  0  0  0  0  0  0
   -2.7242   -1.0988    0.0000 C   0  0  0  0  0  0  0  0  0  0  0  0
   -2.3106   -1.8127    0.0000 C   0  0  0  0  0  0  0  0  0  0  0  0
   -1.5039   -1.6399    0.0000 C   0  0  0  0  0  0  0  0  0  0  0  0
   -2.6430   -2.5667    0.0000 C   0  0  0  0  0  0  0  0  0  0  0  0
   -2.2534   -3.0995    0.0000 O   0  0  0  0  0  0  0  0  0  0  0  0
   -3.2991   -2.6378    0.0000 N   0  0  0  0  0  0  0  0  0  0  0  0
   -3.5437   -1.0123    0.0000 N   0  0  0  0  0  0  0  0  0  0  0  0
   -3.8796   -0.2582    0.0000 C   0  0  0  0  0  0  0  0  0  0  0  0
   -4.7005   -0.1715    0.0000 C   0  0  0  0  0  0  0  0  0  0  0  0
   -3.4916    0.2757    0.0000 O   0  0  0  0  0  0  0  0  0  0  0  0
   -5.0373    0.5816    0.0000 C   0  0  0  0  0  0  0  0  0  0  0  0
   -5.8579    0.6666    0.0000 C   0  0  0  0  0  0  0  0  0  0  0  0
   -6.3418   -0.0017    0.0000 C   0  0  0  0  0  0  0  0  0  0  0  0
   -6.0050   -0.7548    0.0000 C   0  0  0  0  0  0  0  0  0  0  0  0
   -5.1844   -0.8398    0.0000 C   0  0  0  0  0  0  0  0  0  0  0  0
   -6.9983    0.0663    0.0000 Cl  0  0  0  0  0  0  0  0  0  0  0  0
  1  2  4  0  0  0  0
  2  3  4  0  0  0  0
  3  4  4  0  0  0  0
  4  5  4  0  0  0  0
  5  6  4  0  0  0  0
  6  1  4  0  0  0  0
  7  8  4  0  0  0  0
  8  9  4  0  0  0  0
  9 10  4  0  0  0  0
 10 11  4  0  0  0  0
 11  7  4  0  0  0  0
  5  7  1  0  0  0  0
 10 12  1  0  0  0  0
 12 13  2  0  0  0  0
 12 14  1  0  0  0  0
  9 15  1  0  0  0  0
 15 16  1  0  0  0  0
 16 17  1  0  0  0  0
 16 18  2  0  0  0  0
 17 19  4  0  0  0  0
 19 20  4  0  0  0  0
 20 21  4  0  0  0  0
 21 22  4  0  0  0  0
 22 23  4  0  0  0  0
 23 17  4  0  0  0  0
 21 24  1  0  0  0  0
M  END
> <From> 
www.bindingDB.org

> <BindingDB Reactant_set_id>
50302337

> <Ligand InChI>
InChI=1S/C18H13ClN2O2S/c19-13-8-6-12(7-9-13)17(23)21-18-14(16(20)22)10-15(24-18)11-4-2-1-3-5-11/h1-10H,(H2,20,22)(H,21,23)

> <Ligand InChI Key>
KKZSYPOYYONUJB-UHFFFAOYSA-N

> <BindingDB MonomerID>
50066099

> <BindingDB Ligand Name>
CHEMBL3402945

> <Target Name Assigned by Curator or DataSource>
DNA gyrase subunit B

> <Target Source Organism According to Curator or DataSource>


> <Ki (nM)>


> <IC50 (nM)>
 6690

> <Kd (nM)>


> <EC50 (nM)>


> <kon (M-1-s-1)>


> <koff (s-1)>


> <pH>


> <Temp C>
25.00

> <Curation/DataSource>
ChEMBL

> <Article DOI>
10.1016/j.bmc.2015.02.032

> <PMID>
25766629

> <PubChem AID>


> <Patent Number>


> <Authors>
Saxena, S; Samala, G; Renuka, J; Sridevi, JP; Yogeeswari, P; Sriram, D

> <Institution>
Birla Institute of Technology&amp; Science-Pilani

> <Link to Ligand in BindingDB>
http://www.bindingdb.org/bind/chemsearch/marvin/MolStructure.jsp?monomerid=50066099

> <Link to Ligand-Target Pair in BindingDB>
http://www.bindingdb.org/jsp/dbsearch/PrimarySearch_ki.jsp?energyterm=kJ/mole&tag=pol&polymerid=50006452&target=DNA+gyrase+subunit+B&column=ki&startPg=0&Increment=50&submit=Search

> <Link to Ligand-Target Pair in BindingDB>
http://www.bindingdb.org/jsp/dbsearch/PrimarySearch_ki.jsp?energyterm=kJ/mole&tag=r21&monomerid=50066099&enzyme=DNA+gyrase+subunit+B&column=ki&startPg=0&Increment=50&submit=Search

> <Ligand HET ID in PDB>


> <PDB ID(s) for Ligand-Target Complex>


> <PubChem CID>
10291815

> <PubChem SID>
313045054

> <ChEBI ID of Ligand>


> <ChEMBL ID of Ligand>


> <DrugBank ID of Ligand>


> <IUPHAR_GRAC ID of Ligand>


> <KEGG ID of Ligand>


> <ZINC ID of Ligand>


> <Number of Protein Chains in Target (>1 implies a multichain complex)>
1

> <BindingDB Target Chain Sequence>
MAAQKNNAPKEYGADSITILEGLEAVRKRPGMYIGSTGERGLHHLIWEVVDNAVDEAMAGFATRVDVKIHADGSVEVRDDGRGIPVEMHATGMPTIDVVMTQLHAGGKFDGETYAVSGGLHGVGVSVVNALSTRLEATVLRDGYEWFQYYDRSVPGKLKQGGETKETGTTIRFWADPEIFETTDYNFETVARRLQEMAFLNKGLTIELTDERVTAEEVVDDVVKDTAEAPKTADEKAAEATGPSKVKHRVFHYPGGLVDYVKHINRTKTPIQQSIIDFDGKGPGHEVEIAMQWNAGYSESVHTFANTINTHEGGTHEEGFRAALTSVVNRYAKDKKLLKDKDPNLTGDDIREGLAAVISVKVAEPQFEGQTKTKLGNTEVKSFVQKICNEQLQHWFEANPAEAKTVVNKAVSSAQARIAARKARELVRRKSATDIGGLPGKLADCRSTDPSKSELYVVEGDSAGGSAKSGRDSMFQAILPLRGKIINVEKARIDRVLKNTEVQSIITALGTGIHDEFDISKLRYHKIVLMADADVDGQHISTLLLTLLFRFMKPLVENGHIFLAQPPLYKLKWQRSEPEFAYSDRERDGLLEAGRAAGKKINVDDGIQRYKGLGEMDAKELWETTMDPSVRVLRQVTLDDAAAADELFSILMGEDVEARRSFITRNAKDVRFLDV

> <PDB ID(s) of Target Chain>
4BAE

> <UniProt (SwissProt) Recommended Name of Target Chain>
DNA gyrase subunit B

> <UniProt (SwissProt) Entry Name of Target Chain>
GYRB_MYCSM

> <UniProt (SwissProt) Primary ID of Target Chain>
P0C559

> <UniProt (SwissProt) Secondary ID(s) of Target Chain>
P48355,Q59555

> <UniProt (SwissProt) Alternative ID(s) of Target Chain>


> <UniProt (TrEMBL) Submitted Name of Target Chain>


> <UniProt (TrEMBL) Entry Name of Target Chain>


> <UniProt (TrEMBL) Primary ID of Target Chain>


> <UniProt (TrEMBL) Secondary ID(s) of Target Chain>


> <UniProt (TrEMBL) Alternative ID(s) of Target Chain>


$$$$

  SciTegic02271514552D

 34 38  0  0  0  0            999 V2000
   13.4823  -11.4134    0.0000 O   0  0
   13.9672  -10.7460    0.0000 C   0  0
   13.4823  -10.0786    0.0000 C   0  0
   12.6977  -10.3335    0.0000 C   0  0
   12.6977  -11.1585    0.0000 C   0  0
   11.9832   -9.9210    0.0000 C   0  0
   11.2687  -10.3335    0.0000 C   0  0
   11.2687  -11.1585    0.0000 C   0  0
   11.9832  -11.5710    0.0000 C   0  0
   14.7922  -10.7460    0.0000 C   0  0
   15.2047  -11.4604    0.0000 O   0  0
   15.2047  -10.0315    0.0000 O   0  0
   10.5543   -9.9210    0.0000 N   0  0
    9.8397  -10.3335    0.0000 C   0  0
    9.1252   -9.9210    0.0000 C   0  0
    9.1252   -9.0960    0.0000 N   0  0
    9.8397   -8.6834    0.0000 C   0  0
   10.5543   -9.0960    0.0000 C   0  0
    8.4108   -8.6834    0.0000 C   0  0
    7.6963   -9.0960    0.0000 C   0  0
    7.6963   -9.9210    0.0000 C   0  0
    6.9818  -10.3335    0.0000 C   0  0
    6.2674   -9.9210    0.0000 C   0  0
    6.2674   -9.0960    0.0000 C   0  0
    6.9818   -8.6834    0.0000 C   0  0
    8.4108   -7.8584    0.0000 O   0  0
    4.1240  -10.3335    0.0000 C   0  0
    4.8384   -9.9210    0.0000 C   0  0
    5.5529  -10.3335    0.0000 C   0  0
    5.5529  -11.1585    0.0000 C   0  0
    4.8384  -11.5710    0.0000 C   0  0
    4.1240  -11.1585    0.0000 O   0  0
   16.0297  -10.0315    0.0000 C   0  0
   16.4422   -9.3170    0.0000 C   0  0
  1  2  1  0
  2  3  2  0
  3  4  1  0
  4  5  1  0
  1  5  1  0
  6  7  1  0
  7  8  2  0
  8  9  1  0
  5  9  2  0
  4  6  2  0
 10 11  2  0
 10 12  1  0
  2 10  1  0
 13 14  1  0
 14 15  1  0
 15 16  1  0
 16 17  1  0
 17 18  1  0
 13 18  1  0
 19 20  1  0
 20 21  1  0
 21 22  2  0
 22 23  1  0
 23 24  2  0
 24 25  1  0
 20 25  2  0
 19 26  2  0
 27 28  1  0
 28 29  1  0
 29 30  1  0
 30 31  1  0
 31 32  1  0
 27 32  1  0
 23 29  1  0
 16 19  1  0
  7 13  1  0
 33 34  1  0
 12 33  1  0
M  END
> <From> 
www.bindingDB.org

> <BindingDB Reactant_set_id>
50369943

> <Ligand InChI>
InChI=1S/C27H30N2O5/c1-2-33-27(31)25-18-22-17-23(7-8-24(22)34-25)28-11-13-29(14-12-28)26(30)21-5-3-19(4-6-21)20-9-15-32-16-10-20/h3-8,17-18,20H,2,9-16H2,1H3

> <Ligand InChI Key>
BUIMKNRWZIHCPC-UHFFFAOYSA-N

> <BindingDB MonomerID>
50100685

> <BindingDB Ligand Name>
CHEMBL3323163

> <Target Name Assigned by Curator or DataSource>
DNA gyrase subunit B

> <Target Source Organism According to Curator or DataSource>


> <Ki (nM)>


> <IC50 (nM)>
 6698

> <Kd (nM)>


> <EC50 (nM)>


> <kon (M-1-s-1)>


> <koff (s-1)>


> <pH>


> <Temp C>


> <Curation/DataSource>
ChEMBL

> <Article DOI>
10.1016/j.bmc.2014.06.041

> <PMID>
25129171

> <PubChem AID>


> <Patent Number>


> <Authors>
Renuka, J; Reddy, KI; Srihari, K; Jeankumar, VU; Shravan, M; Sridevi, JP; Yogeeswari, P; Babu, KS; Sriram, D

> <Institution>
Institute of Technology&amp; Science-Pilani

> <Link to Ligand in BindingDB>
http://www.bindingdb.org/bind/chemsearch/marvin/MolStructure.jsp?monomerid=50100685

> <Link to Ligand-Target Pair in BindingDB>
http://www.bindingdb.org/jsp/dbsearch/PrimarySearch_ki.jsp?energyterm=kJ/mole&tag=pol&polymerid=50006452&target=DNA+gyrase+subunit+B&column=ki&startPg=0&Increment=50&submit=Search

> <Link to Ligand-Target Pair in BindingDB>
http://www.bindingdb.org/jsp/dbsearch/PrimarySearch_ki.jsp?energyterm=kJ/mole&tag=r21&monomerid=50100685&enzyme=DNA+gyrase+subunit+B&column=ki&startPg=0&Increment=50&submit=Search

> <Ligand HET ID in PDB>


> <PDB ID(s) for Ligand-Target Complex>


> <PubChem CID>
118710575

> <PubChem SID>
103997413

> <ChEBI ID of Ligand>


> <ChEMBL ID of Ligand>
CHEMBL418884

> <DrugBank ID of Ligand>


> <IUPHAR_GRAC ID of Ligand>


> <KEGG ID of Ligand>


> <ZINC ID of Ligand>
ZINC36310758

> <Number of Protein Chains in Target (>1 implies a multichain complex)>
1

> <BindingDB Target Chain Sequence>
MAAQKNNAPKEYGADSITILEGLEAVRKRPGMYIGSTGERGLHHLIWEVVDNAVDEAMAGFATRVDVKIHADGSVEVRDDGRGIPVEMHATGMPTIDVVMTQLHAGGKFDGETYAVSGGLHGVGVSVVNALSTRLEATVLRDGYEWFQYYDRSVPGKLKQGGETKETGTTIRFWADPEIFETTDYNFETVARRLQEMAFLNKGLTIELTDERVTAEEVVDDVVKDTAEAPKTADEKAAEATGPSKVKHRVFHYPGGLVDYVKHINRTKTPIQQSIIDFDGKGPGHEVEIAMQWNAGYSESVHTFANTINTHEGGTHEEGFRAALTSVVNRYAKDKKLLKDKDPNLTGDDIREGLAAVISVKVAEPQFEGQTKTKLGNTEVKSFVQKICNEQLQHWFEANPAEAKTVVNKAVSSAQARIAARKARELVRRKSATDIGGLPGKLADCRSTDPSKSELYVVEGDSAGGSAKSGRDSMFQAILPLRGKIINVEKARIDRVLKNTEVQSIITALGTGIHDEFDISKLRYHKIVLMADADVDGQHISTLLLTLLFRFMKPLVENGHIFLAQPPLYKLKWQRSEPEFAYSDRERDGLLEAGRAAGKKINVDDGIQRYKGLGEMDAKELWETTMDPSVRVLRQVTLDDAAAADELFSILMGEDVEARRSFITRNAKDVRFLDV

> <PDB ID(s) of Target Chain>
4BAE

> <UniProt (SwissProt) Recommended Name of Target Chain>
DNA gyrase subunit B

> <UniProt (SwissProt) Entry Name of Target Chain>
GYRB_MYCSM

> <UniProt (SwissProt) Primary ID of Target Chain>
P0C559

> <UniProt (SwissProt) Secondary ID(s) of Target Chain>
P48355,Q59555

> <UniProt (SwissProt) Alternative ID(s) of Target Chain>


> <UniProt (TrEMBL) Submitted Name of Target Chain>


> <UniProt (TrEMBL) Entry Name of Target Chain>


> <UniProt (TrEMBL) Primary ID of Target Chain>


> <UniProt (TrEMBL) Secondary ID(s) of Target Chain>


> <UniProt (TrEMBL) Alternative ID(s) of Target Chain>


$$$$

  SciTegic12221713012D

 29 32  0  0  0  0            999 V2000
   16.4362   -5.4515    0.0000 N   0  0
   15.7228   -5.8493    0.0000 C   0  0
   15.7098   -6.6664    0.0000 C   0  0
   16.4144   -7.0856    0.0000 N   0  0
   17.1278   -6.6877    0.0000 C   0  0
   17.1366   -5.8706    0.0000 C   0  0
   16.4450   -4.6344    0.0000 C   0  0
   17.1584   -4.2365    0.0000 N   0  0
   15.7445   -4.2152    0.0000 S   0  0
   17.1713   -3.4194    0.0000 C   0  0
   17.8847   -3.0174    0.0000 C   0  0
   17.8976   -2.2003    0.0000 C   0  0
   17.1931   -1.7853    0.0000 C   0  0
   16.4797   -2.1832    0.0000 C   0  0
   16.4709   -3.0002    0.0000 C   0  0
   16.3797   -9.5368    0.0000 N   0  0
   17.0931   -9.1389    0.0000 C   0  0
   17.1019   -8.3219    0.0000 C   0  0
   16.4015   -7.9027    0.0000 C   0  0
   15.6881   -8.3006    0.0000 C   0  0
   14.9876   -7.8814    0.0000 C   0  0
   14.2742   -8.2793    0.0000 C   0  0
   14.2613   -9.1005    0.0000 C   0  0
   14.9617   -9.5155    0.0000 C   0  0
   15.6793   -9.1176    0.0000 C   0  0
   13.5479   -9.4983    0.0000 Cl  0  0
   17.2013   -0.9696    0.0000 N   0  3
   16.4985   -0.5527    0.0000 O   0  0
   17.9138   -0.5694    0.0000 O   0  5
  1  2  1  0
  2  3  1  0
  3  4  1  0
  4  5  1  0
  5  6  1  0
  1  6  1  0
  7  8  1  0
  7  9  2  0
  1  7  1  0
 10 11  1  0
 11 12  2  0
 12 13  1  0
 13 14  2  0
 14 15  1  0
 10 15  2  0
  8 10  1  0
 16 17  2  0
 17 18  1  0
 18 19  2  0
 19 20  1  0
 20 21  2  0
 21 22  1  0
 22 23  2  0
 23 24  1  0
 24 25  2  0
 16 25  1  0
 20 25  1  0
 23 26  1  0
  4 19  1  0
 27 28  2  0
 27 29  1  0
 13 27  1  0
M  CHG  2  27   1  29  -1
M  END
> <From> 
www.bindingDB.org

> <BindingDB Reactant_set_id>
50528088

> <Ligand InChI>
InChI=1S/C20H18ClN5O2S/c21-14-1-6-17-18(13-14)22-8-7-19(17)24-9-11-25(12-10-24)20(29)23-15-2-4-16(5-3-15)26(27)28/h1-8,13H,9-12H2,(H,23,29)

> <Ligand InChI Key>
QUZCVCOGGWFMTC-UHFFFAOYSA-N

> <BindingDB MonomerID>
50202231

> <BindingDB Ligand Name>
CHEMBL3957846

> <Target Name Assigned by Curator or DataSource>
DNA gyrase subunit B

> <Target Source Organism According to Curator or DataSource>


> <Ki (nM)>


> <IC50 (nM)>
 6800

> <Kd (nM)>


> <EC50 (nM)>


> <kon (M-1-s-1)>


> <koff (s-1)>


> <pH>


> <Temp C>


> <Curation/DataSource>
ChEMBL

> <Article DOI>
10.1016/j.ejmech.2016.06.042

> <PMID>
27371925

> <PubChem AID>


> <Patent Number>


> <Authors>
Jeankumar, VU; Reshma, RS; Vats, R; Janupally, R; Saxena, S; Yogeeswari, P; Sriram, D

> <Institution>
Birla Institute of Technology&amp; Science-Pilani

> <Link to Ligand in BindingDB>
http://www.bindingdb.org/bind/chemsearch/marvin/MolStructure.jsp?monomerid=50202231

> <Link to Ligand-Target Pair in BindingDB>
http://www.bindingdb.org/jsp/dbsearch/PrimarySearch_ki.jsp?energyterm=kJ/mole&tag=pol&polymerid=50006452&target=DNA+gyrase+subunit+B&column=ki&startPg=0&Increment=50&submit=Search

> <Link to Ligand-Target Pair in BindingDB>
http://www.bindingdb.org/jsp/dbsearch/PrimarySearch_ki.jsp?energyterm=kJ/mole&tag=r21&monomerid=50202231&enzyme=DNA+gyrase+subunit+B&column=ki&startPg=0&Increment=50&submit=Search

> <Ligand HET ID in PDB>


> <PDB ID(s) for Ligand-Target Complex>


> <PubChem CID>
134156030

> <PubChem SID>
375979599

> <ChEBI ID of Ligand>


> <ChEMBL ID of Ligand>


> <DrugBank ID of Ligand>


> <IUPHAR_GRAC ID of Ligand>


> <KEGG ID of Ligand>


> <ZINC ID of Ligand>


> <Number of Protein Chains in Target (>1 implies a multichain complex)>
1

> <BindingDB Target Chain Sequence>
MAAQKNNAPKEYGADSITILEGLEAVRKRPGMYIGSTGERGLHHLIWEVVDNAVDEAMAGFATRVDVKIHADGSVEVRDDGRGIPVEMHATGMPTIDVVMTQLHAGGKFDGETYAVSGGLHGVGVSVVNALSTRLEATVLRDGYEWFQYYDRSVPGKLKQGGETKETGTTIRFWADPEIFETTDYNFETVARRLQEMAFLNKGLTIELTDERVTAEEVVDDVVKDTAEAPKTADEKAAEATGPSKVKHRVFHYPGGLVDYVKHINRTKTPIQQSIIDFDGKGPGHEVEIAMQWNAGYSESVHTFANTINTHEGGTHEEGFRAALTSVVNRYAKDKKLLKDKDPNLTGDDIREGLAAVISVKVAEPQFEGQTKTKLGNTEVKSFVQKICNEQLQHWFEANPAEAKTVVNKAVSSAQARIAARKARELVRRKSATDIGGLPGKLADCRSTDPSKSELYVVEGDSAGGSAKSGRDSMFQAILPLRGKIINVEKARIDRVLKNTEVQSIITALGTGIHDEFDISKLRYHKIVLMADADVDGQHISTLLLTLLFRFMKPLVENGHIFLAQPPLYKLKWQRSEPEFAYSDRERDGLLEAGRAAGKKINVDDGIQRYKGLGEMDAKELWETTMDPSVRVLRQVTLDDAAAADELFSILMGEDVEARRSFITRNAKDVRFLDV

> <PDB ID(s) of Target Chain>
4BAE

> <UniProt (SwissProt) Recommended Name of Target Chain>
DNA gyrase subunit B

> <UniProt (SwissProt) Entry Name of Target Chain>
GYRB_MYCSM

> <UniProt (SwissProt) Primary ID of Target Chain>
P0C559

> <UniProt (SwissProt) Secondary ID(s) of Target Chain>
P48355,Q59555

> <UniProt (SwissProt) Alternative ID(s) of Target Chain>


> <UniProt (TrEMBL) Submitted Name of Target Chain>


> <UniProt (TrEMBL) Entry Name of Target Chain>


> <UniProt (TrEMBL) Primary ID of Target Chain>


> <UniProt (TrEMBL) Secondary ID(s) of Target Chain>


> <UniProt (TrEMBL) Alternative ID(s) of Target Chain>


$$$$

  SciTegic04201612532D

 33 36  0  0  0  0            999 V2000
   -1.2964    1.4973    0.0000 N   0  0
   -2.6111    0.7486    0.0000 C   0  0
   -2.6111   -0.7486    0.0000 C   0  0
   -1.2964   -1.4973    0.0000 C   0  0
    0.0000   -0.7486    0.0000 C   0  0
    1.2964   -1.4973    0.0000 C   0  0
    2.5929   -0.7486    0.0000 C   0  0
    2.5929    0.7486    0.0000 C   0  0
    1.2964    1.4973    0.0000 C   0  0
    0.0000    0.7486    0.0000 C   0  0
   -3.9122   -1.4966    0.0000 C   0  0
   -4.9506   -0.8952    0.0000 O   0  0
   -1.2907   -2.9981    0.0000 N   0  0
   -2.5870   -3.7544    0.0000 C   0  0
   -2.5835   -5.2544    0.0000 C   0  0
   -3.8807   -6.0076    0.0000 C   0  0
   -5.1815   -5.2608    0.0000 C   0  0
   -5.1852   -3.7608    0.0000 C   0  0
   -3.8880   -3.0076    0.0000 C   0  0
   -6.4810   -6.0117    0.0000 O   0  0
   -7.7815   -5.2626    0.0000 C   0  0
   -9.0810   -6.0135    0.0000 C   0  0
  -10.3815   -5.2644    0.0000 C   0  0
  -14.2755   -7.5217    0.0000 N   0  0
  -14.2791   -6.0217    0.0000 C   0  0
  -12.9819   -5.2686    0.0000 C   0  0
  -11.6810   -6.0154    0.0000 N   0  0
  -11.6774   -7.5154    0.0000 C   0  0
  -12.9746   -8.2686    0.0000 C   0  0
   -3.9138   -2.4966    0.0000 O   0  0
  -15.5719   -8.2779    0.0000 C   0  0
  -15.5672   -9.4779    0.0000 C   0  0
    3.6321   -1.3486    0.0000 F   0  0
  1  2  2  0
  2  3  1  0
  3  4  2  0
  4  5  1  0
  5  6  2  0
  6  7  1  0
  7  8  2  0
  8  9  1  0
  9 10  2  0
  1 10  1  0
  5 10  1  0
 11 12  2  0
  3 11  1  0
 14 15  1  0
 15 16  2  0
 16 17  1  0
 17 18  2  0
 18 19  1  0
 14 19  2  0
 21 22  1  0
 22 23  1  0
 20 21  1  0
 24 25  1  0
 25 26  1  0
 26 27  1  0
 27 28  1  0
 28 29  1  0
 24 29  1  0
 23 27  1  0
 17 20  1  0
 13 14  1  0
  4 13  1  0
 11 30  1  0
 24 31  1  0
 31 32  1  0
  7 33  1  0
M  END
> <From> 
www.bindingDB.org

> <BindingDB Reactant_set_id>
50426754

> <Ligand InChI>
InChI=1S/C25H29FN4O3/c1-2-29-11-13-30(14-12-29)10-3-15-33-20-7-5-19(6-8-20)28-24-21-16-18(26)4-9-23(21)27-17-22(24)25(31)32/h4-9,16-17H,2-3,10-15H2,1H3,(H,27,28)(H,31,32)

> <Ligand InChI Key>
ZXWCIARGOLSZBB-UHFFFAOYSA-N

> <BindingDB MonomerID>
50126178

> <BindingDB Ligand Name>
CHEMBL3628524

> <Target Name Assigned by Curator or DataSource>
DNA gyrase subunit B

> <Target Source Organism According to Curator or DataSource>


> <Ki (nM)>


> <IC50 (nM)>
 6820

> <Kd (nM)>


> <EC50 (nM)>


> <kon (M-1-s-1)>


> <koff (s-1)>


> <pH>


> <Temp C>


> <Curation/DataSource>
ChEMBL

> <Article DOI>
10.1016/j.ejmech.2015.06.032

> <PMID>
26318054

> <PubChem AID>


> <Patent Number>


> <Authors>
Medapi, B; Suryadevara, P; Renuka, J; Sridevi, JP; Yogeeswari, P; Sriram, D

> <Institution>
Birla Institute of Technology&amp;Science

> <Link to Ligand in BindingDB>
http://www.bindingdb.org/bind/chemsearch/marvin/MolStructure.jsp?monomerid=50126178

> <Link to Ligand-Target Pair in BindingDB>
http://www.bindingdb.org/jsp/dbsearch/PrimarySearch_ki.jsp?energyterm=kJ/mole&tag=pol&polymerid=50006452&target=DNA+gyrase+subunit+B&column=ki&startPg=0&Increment=50&submit=Search

> <Link to Ligand-Target Pair in BindingDB>
http://www.bindingdb.org/jsp/dbsearch/PrimarySearch_ki.jsp?energyterm=kJ/mole&tag=r21&monomerid=50126178&enzyme=DNA+gyrase+subunit+B&column=ki&startPg=0&Increment=50&submit=Search

> <Ligand HET ID in PDB>


> <PDB ID(s) for Ligand-Target Complex>


> <PubChem CID>
122193525

> <PubChem SID>
321902385

> <ChEBI ID of Ligand>


> <ChEMBL ID of Ligand>


> <DrugBank ID of Ligand>


> <IUPHAR_GRAC ID of Ligand>


> <KEGG ID of Ligand>


> <ZINC ID of Ligand>


> <Number of Protein Chains in Target (>1 implies a multichain complex)>
1

> <BindingDB Target Chain Sequence>
MAAQKNNAPKEYGADSITILEGLEAVRKRPGMYIGSTGERGLHHLIWEVVDNAVDEAMAGFATRVDVKIHADGSVEVRDDGRGIPVEMHATGMPTIDVVMTQLHAGGKFDGETYAVSGGLHGVGVSVVNALSTRLEATVLRDGYEWFQYYDRSVPGKLKQGGETKETGTTIRFWADPEIFETTDYNFETVARRLQEMAFLNKGLTIELTDERVTAEEVVDDVVKDTAEAPKTADEKAAEATGPSKVKHRVFHYPGGLVDYVKHINRTKTPIQQSIIDFDGKGPGHEVEIAMQWNAGYSESVHTFANTINTHEGGTHEEGFRAALTSVVNRYAKDKKLLKDKDPNLTGDDIREGLAAVISVKVAEPQFEGQTKTKLGNTEVKSFVQKICNEQLQHWFEANPAEAKTVVNKAVSSAQARIAARKARELVRRKSATDIGGLPGKLADCRSTDPSKSELYVVEGDSAGGSAKSGRDSMFQAILPLRGKIINVEKARIDRVLKNTEVQSIITALGTGIHDEFDISKLRYHKIVLMADADVDGQHISTLLLTLLFRFMKPLVENGHIFLAQPPLYKLKWQRSEPEFAYSDRERDGLLEAGRAAGKKINVDDGIQRYKGLGEMDAKELWETTMDPSVRVLRQVTLDDAAAADELFSILMGEDVEARRSFITRNAKDVRFLDV

> <PDB ID(s) of Target Chain>
4BAE

> <UniProt (SwissProt) Recommended Name of Target Chain>
DNA gyrase subunit B

> <UniProt (SwissProt) Entry Name of Target Chain>
GYRB_MYCSM

> <UniProt (SwissProt) Primary ID of Target Chain>
P0C559

> <UniProt (SwissProt) Secondary ID(s) of Target Chain>
P48355,Q59555

> <UniProt (SwissProt) Alternative ID(s) of Target Chain>


> <UniProt (TrEMBL) Submitted Name of Target Chain>


> <UniProt (TrEMBL) Entry Name of Target Chain>


> <UniProt (TrEMBL) Primary ID of Target Chain>


> <UniProt (TrEMBL) Secondary ID(s) of Target Chain>


> <UniProt (TrEMBL) Alternative ID(s) of Target Chain>


$$$$

  Mrv0541 04171609262D          

 31 34  0  0  0  0            999 V2000
   -1.4361    0.4117    0.0000 C   0  0  0  0  0  0  0  0  0  0  0  0
   -1.4361   -0.4117    0.0000 C   0  0  0  0  0  0  0  0  0  0  0  0
   -0.7130   -0.8235    0.0000 C   0  0  0  0  0  0  0  0  0  0  0  0
   -0.7130    0.8235    0.0000 C   0  0  0  0  0  0  0  0  0  0  0  0
    0.0000    0.4117    0.0000 C   0  0  0  0  0  0  0  0  0  0  0  0
    0.0000   -0.4117    0.0000 C   0  0  0  0  0  0  0  0  0  0  0  0
    0.7130   -0.8235    0.0000 N   0  0  0  0  0  0  0  0  0  0  0  0
    1.4261   -0.4117    0.0000 C   0  0  0  0  0  0  0  0  0  0  0  0
    1.4261    0.4117    0.0000 C   0  0  0  0  0  0  0  0  0  0  0  0
    0.7130    0.8235    0.0000 C   0  0  0  0  0  0  0  0  0  0  0  0
    0.7130    1.6489    0.0000 N   0  0  0  0  0  0  0  0  0  0  0  0
   -0.0008    2.0627    0.0000 C   0  0  0  0  0  0  0  0  0  0  0  0
    0.0006    2.8877    0.0000 C   0  0  0  0  0  0  0  0  0  0  0  0
    0.7158    3.2990    0.0000 C   0  0  0  0  0  0  0  0  0  0  0  0
    1.4296    2.8853    0.0000 C   0  0  0  0  0  0  0  0  0  0  0  0
    1.4282    2.0603    0.0000 C   0  0  0  0  0  0  0  0  0  0  0  0
    0.7188    4.1245    0.0000 N   0  0  0  0  0  0  0  0  0  0  0  0
    1.4350    4.5350    0.0000 C   0  0  0  0  0  0  0  0  0  0  0  0
    2.0054    4.2031    0.0000 O   0  0  0  0  0  0  0  0  0  0  0  0
    1.4380    5.3604    0.0000 N   0  0  0  0  0  0  0  0  0  0  0  0
    2.1541    5.7709    0.0000 C   0  0  0  0  0  0  0  0  0  0  0  0
    2.1584    6.5960    0.0000 C   0  0  0  0  0  0  0  0  0  0  0  0
    2.8750    7.0048    0.0000 C   0  0  0  0  0  0  0  0  0  0  0  0
    3.5873    6.5887    0.0000 C   0  0  0  0  0  0  0  0  0  0  0  0
    3.5831    5.7637    0.0000 C   0  0  0  0  0  0  0  0  0  0  0  0
    2.8666    5.3548    0.0000 C   0  0  0  0  0  0  0  0  0  0  0  0
    1.9977   -0.7417    0.0000 C   0  0  0  0  0  0  0  0  0  0  0  0
    4.3051    6.9962    0.0000 N   0  3  0  0  0  0  0  0  0  0  0  0
    4.8746    6.6626    0.0000 O   0  0  0  0  0  0  0  0  0  0  0  0
    4.3096    7.6562    0.0000 O   0  5  0  0  0  0  0  0  0  0  0  0
   -2.0067    0.7434    0.0000 F   0  0  0  0  0  0  0  0  0  0  0  0
  1  2  4  0  0  0  0
  2  3  4  0  0  0  0
  3  6  4  0  0  0  0
  5  4  4  0  0  0  0
  4  1  4  0  0  0  0
  5  6  4  0  0  0  0
  6  7  4  0  0  0  0
  7  8  4  0  0  0  0
  8  9  4  0  0  0  0
  9 10  4  0  0  0  0
 10  5  4  0  0  0  0
 11 12  1  0  0  0  0
 11 16  1  0  0  0  0
 12 13  1  0  0  0  0
 13 14  1  0  0  0  0
 14 15  1  0  0  0  0
 15 16  1  0  0  0  0
 10 11  1  0  0  0  0
 14 17  1  0  0  0  0
 17 18  1  0  0  0  0
 18 19  2  0  0  0  0
 18 20  1  0  0  0  0
 20 21  1  0  0  0  0
 21 22  4  0  0  0  0
 22 23  4  0  0  0  0
 23 24  4  0  0  0  0
 24 25  4  0  0  0  0
 25 26  4  0  0  0  0
 26 21  4  0  0  0  0
  8 27  1  0  0  0  0
 24 28  1  0  0  0  0
 28 29  2  0  0  0  0
 28 30  1  0  0  0  0
  1 31  1  0  0  0  0
M  CHG  2  28   1  30  -1
M  END
> <From> 
www.bindingDB.org

> <BindingDB Reactant_set_id>
50303802

> <Ligand InChI>
InChI=1S/C22H22FN5O3/c1-14-12-21(19-13-15(23)2-7-20(19)24-14)27-10-8-17(9-11-27)26-22(29)25-16-3-5-18(6-4-16)28(30)31/h2-7,12-13,17H,8-11H2,1H3,(H2,25,26,29)

> <Ligand InChI Key>
ALVPZIJIRJHEDI-UHFFFAOYSA-N

> <BindingDB MonomerID>
50066972

> <BindingDB Ligand Name>
CHEMBL3403257

> <Target Name Assigned by Curator or DataSource>
DNA gyrase subunit B

> <Target Source Organism According to Curator or DataSource>


> <Ki (nM)>


> <IC50 (nM)>
 6830

> <Kd (nM)>


> <EC50 (nM)>


> <kon (M-1-s-1)>


> <koff (s-1)>


> <pH>


> <Temp C>


> <Curation/DataSource>
ChEMBL

> <Article DOI>
10.1016/j.bmc.2015.03.004

> <PMID>
25801151

> <PubChem AID>


> <Patent Number>


> <Authors>
Medapi, B; Renuka, J; Saxena, S; Sridevi, JP; Medishetti, R; Kulkarni, P; Yogeeswari, P; Sriram, D

> <Institution>
Birla Institute of Technology&amp; Science-Pilani

> <Link to Ligand in BindingDB>
http://www.bindingdb.org/bind/chemsearch/marvin/MolStructure.jsp?monomerid=50066972

> <Link to Ligand-Target Pair in BindingDB>
http://www.bindingdb.org/jsp/dbsearch/PrimarySearch_ki.jsp?energyterm=kJ/mole&tag=pol&polymerid=50006452&target=DNA+gyrase+subunit+B&column=ki&startPg=0&Increment=50&submit=Search

> <Link to Ligand-Target Pair in BindingDB>
http://www.bindingdb.org/jsp/dbsearch/PrimarySearch_ki.jsp?energyterm=kJ/mole&tag=r21&monomerid=50066972&enzyme=DNA+gyrase+subunit+B&column=ki&startPg=0&Increment=50&submit=Search

> <Ligand HET ID in PDB>


> <PDB ID(s) for Ligand-Target Complex>


> <PubChem CID>
118729673

> <PubChem SID>
313071771

> <ChEBI ID of Ligand>


> <ChEMBL ID of Ligand>


> <DrugBank ID of Ligand>


> <IUPHAR_GRAC ID of Ligand>


> <KEGG ID of Ligand>


> <ZINC ID of Ligand>


> <Number of Protein Chains in Target (>1 implies a multichain complex)>
1

> <BindingDB Target Chain Sequence>
MAAQKNNAPKEYGADSITILEGLEAVRKRPGMYIGSTGERGLHHLIWEVVDNAVDEAMAGFATRVDVKIHADGSVEVRDDGRGIPVEMHATGMPTIDVVMTQLHAGGKFDGETYAVSGGLHGVGVSVVNALSTRLEATVLRDGYEWFQYYDRSVPGKLKQGGETKETGTTIRFWADPEIFETTDYNFETVARRLQEMAFLNKGLTIELTDERVTAEEVVDDVVKDTAEAPKTADEKAAEATGPSKVKHRVFHYPGGLVDYVKHINRTKTPIQQSIIDFDGKGPGHEVEIAMQWNAGYSESVHTFANTINTHEGGTHEEGFRAALTSVVNRYAKDKKLLKDKDPNLTGDDIREGLAAVISVKVAEPQFEGQTKTKLGNTEVKSFVQKICNEQLQHWFEANPAEAKTVVNKAVSSAQARIAARKARELVRRKSATDIGGLPGKLADCRSTDPSKSELYVVEGDSAGGSAKSGRDSMFQAILPLRGKIINVEKARIDRVLKNTEVQSIITALGTGIHDEFDISKLRYHKIVLMADADVDGQHISTLLLTLLFRFMKPLVENGHIFLAQPPLYKLKWQRSEPEFAYSDRERDGLLEAGRAAGKKINVDDGIQRYKGLGEMDAKELWETTMDPSVRVLRQVTLDDAAAADELFSILMGEDVEARRSFITRNAKDVRFLDV

> <PDB ID(s) of Target Chain>
4BAE

> <UniProt (SwissProt) Recommended Name of Target Chain>
DNA gyrase subunit B

> <UniProt (SwissProt) Entry Name of Target Chain>
GYRB_MYCSM

> <UniProt (SwissProt) Primary ID of Target Chain>
P0C559

> <UniProt (SwissProt) Secondary ID(s) of Target Chain>
P48355,Q59555

> <UniProt (SwissProt) Alternative ID(s) of Target Chain>


> <UniProt (TrEMBL) Submitted Name of Target Chain>


> <UniProt (TrEMBL) Entry Name of Target Chain>


> <UniProt (TrEMBL) Primary ID of Target Chain>


> <UniProt (TrEMBL) Secondary ID(s) of Target Chain>


> <UniProt (TrEMBL) Alternative ID(s) of Target Chain>


$$$$

  Mrv0541 03201611132D          

 26 29  0  0  0  0            999 V2000
   29.8910  -11.5865    0.0000 N   0  0  0  0  0  0  0  0  0  0  0  0
   29.2793  -12.1390    0.0000 C   0  0  0  0  0  0  0  0  0  0  0  0
   28.4953  -11.8822    0.0000 C   0  0  0  0  0  0  0  0  0  0  0  0
   28.3231  -11.0769    0.0000 N   0  0  0  0  0  0  0  0  0  0  0  0
   28.9390  -10.5242    0.0000 C   0  0  0  0  0  0  0  0  0  0  0  0
   29.7229  -10.7811    0.0000 C   0  0  0  0  0  0  0  0  0  0  0  0
   30.6749  -11.8434    0.0000 C   0  0  0  0  0  0  0  0  0  0  0  0
   30.8472  -12.6487    0.0000 O   0  0  0  0  0  0  0  0  0  0  0  0
   31.2908  -11.2907    0.0000 N   0  0  0  0  0  0  0  0  0  0  0  0
   26.2052  -10.8241    0.0000 S   0  0  0  0  0  0  0  0  0  0  0  0
   26.8742  -11.3085    0.0000 N   0  0  0  0  0  0  0  0  0  0  0  0
   27.5391  -10.8241    0.0000 C   0  0  0  0  0  0  0  0  0  0  0  0
   27.2864  -10.0402    0.0000 C   0  0  0  0  0  0  0  0  0  0  0  0
   26.4621  -10.0402    0.0000 C   0  0  0  0  0  0  0  0  0  0  0  0
   26.0500   -9.3249    0.0000 C   0  0  0  0  0  0  0  0  0  0  0  0
   26.4621   -8.6097    0.0000 C   0  0  0  0  0  0  0  0  0  0  0  0
   27.2864   -8.6097    0.0000 C   0  0  0  0  0  0  0  0  0  0  0  0
   27.6985   -9.3249    0.0000 C   0  0  0  0  0  0  0  0  0  0  0  0
   32.0850  -11.5058    0.0000 C   0  0  0  0  0  0  0  0  0  0  0  0
   32.6684  -10.9224    0.0000 C   0  0  0  0  0  0  0  0  0  0  0  0
   32.4534  -10.1240    0.0000 C   0  0  0  0  0  0  0  0  0  0  0  0
   33.0368   -9.5407    0.0000 C   0  0  0  0  0  0  0  0  0  0  0  0
   33.8352   -9.7556    0.0000 C   0  0  0  0  0  0  0  0  0  0  0  0
   34.0460  -10.5499    0.0000 C   0  0  0  0  0  0  0  0  0  0  0  0
   33.4627  -11.1332    0.0000 C   0  0  0  0  0  0  0  0  0  0  0  0
   34.4186   -9.1723    0.0000 Cl  0  0  0  0  0  0  0  0  0  0  0  0
  1  2  1  0  0  0  0
  2  3  1  0  0  0  0
  3  4  1  0  0  0  0
  4  5  1  0  0  0  0
  5  6  1  0  0  0  0
  1  6  1  0  0  0  0
  7  8  2  0  0  0  0
  7  9  1  0  0  0  0
  1  7  1  0  0  0  0
 10 11  4  0  0  0  0
 11 12  4  0  0  0  0
 12 13  4  0  0  0  0
 13 14  4  0  0  0  0
 10 14  4  0  0  0  0
 15 16  4  0  0  0  0
 16 17  4  0  0  0  0
 17 18  4  0  0  0  0
 13 18  4  0  0  0  0
 14 15  4  0  0  0  0
  4 12  1  0  0  0  0
 19 20  1  0  0  0  0
 20 21  4  0  0  0  0
 21 22  4  0  0  0  0
 22 23  4  0  0  0  0
 23 24  4  0  0  0  0
 24 25  4  0  0  0  0
 20 25  4  0  0  0  0
 23 26  1  0  0  0  0
  9 19  1  0  0  0  0
M  END
> <From> 
www.bindingDB.org

> <BindingDB Reactant_set_id>
50254220

> <Ligand InChI>
InChI=1S/C19H19ClN4OS/c20-15-7-5-14(6-8-15)13-21-19(25)24-11-9-23(10-12-24)18-16-3-1-2-4-17(16)26-22-18/h1-8H,9-13H2,(H,21,25)

> <Ligand InChI Key>
DFXJKYBWYDQORQ-UHFFFAOYSA-N

> <BindingDB MonomerID>
50037201

> <BindingDB Ligand Name>
CHEMBL3355802

> <Target Name Assigned by Curator or DataSource>
DNA gyrase subunit B

> <Target Source Organism According to Curator or DataSource>


> <Ki (nM)>


> <IC50 (nM)>
 6880

> <Kd (nM)>


> <EC50 (nM)>


> <kon (M-1-s-1)>


> <koff (s-1)>


> <pH>


> <Temp C>


> <Curation/DataSource>
ChEMBL

> <Article DOI>
10.1016/j.bmc.2014.10.016

> <PMID>
25456076

> <PubChem AID>


> <Patent Number>


> <Authors>
Reddy, KI; Srihari, K; Renuka, J; Sree, KS; Chuppala, A; Jeankumar, VU; Sridevi, JP; Babu, KS; Yogeeswari, P; Sriram, D

> <Institution>
TBA

> <Link to Ligand in BindingDB>
http://www.bindingdb.org/bind/chemsearch/marvin/MolStructure.jsp?monomerid=50037201

> <Link to Ligand-Target Pair in BindingDB>
http://www.bindingdb.org/jsp/dbsearch/PrimarySearch_ki.jsp?energyterm=kJ/mole&tag=pol&polymerid=50006452&target=DNA+gyrase+subunit+B&column=ki&startPg=0&Increment=50&submit=Search

> <Link to Ligand-Target Pair in BindingDB>
http://www.bindingdb.org/jsp/dbsearch/PrimarySearch_ki.jsp?energyterm=kJ/mole&tag=r21&monomerid=50037201&enzyme=DNA+gyrase+subunit+B&column=ki&startPg=0&Increment=50&submit=Search

> <Ligand HET ID in PDB>


> <PDB ID(s) for Ligand-Target Complex>


> <PubChem CID>
118721100

> <PubChem SID>
313067078

> <ChEBI ID of Ligand>


> <ChEMBL ID of Ligand>


> <DrugBank ID of Ligand>


> <IUPHAR_GRAC ID of Ligand>


> <KEGG ID of Ligand>


> <ZINC ID of Ligand>


> <Number of Protein Chains in Target (>1 implies a multichain complex)>
1

> <BindingDB Target Chain Sequence>
MAAQKNNAPKEYGADSITILEGLEAVRKRPGMYIGSTGERGLHHLIWEVVDNAVDEAMAGFATRVDVKIHADGSVEVRDDGRGIPVEMHATGMPTIDVVMTQLHAGGKFDGETYAVSGGLHGVGVSVVNALSTRLEATVLRDGYEWFQYYDRSVPGKLKQGGETKETGTTIRFWADPEIFETTDYNFETVARRLQEMAFLNKGLTIELTDERVTAEEVVDDVVKDTAEAPKTADEKAAEATGPSKVKHRVFHYPGGLVDYVKHINRTKTPIQQSIIDFDGKGPGHEVEIAMQWNAGYSESVHTFANTINTHEGGTHEEGFRAALTSVVNRYAKDKKLLKDKDPNLTGDDIREGLAAVISVKVAEPQFEGQTKTKLGNTEVKSFVQKICNEQLQHWFEANPAEAKTVVNKAVSSAQARIAARKARELVRRKSATDIGGLPGKLADCRSTDPSKSELYVVEGDSAGGSAKSGRDSMFQAILPLRGKIINVEKARIDRVLKNTEVQSIITALGTGIHDEFDISKLRYHKIVLMADADVDGQHISTLLLTLLFRFMKPLVENGHIFLAQPPLYKLKWQRSEPEFAYSDRERDGLLEAGRAAGKKINVDDGIQRYKGLGEMDAKELWETTMDPSVRVLRQVTLDDAAAADELFSILMGEDVEARRSFITRNAKDVRFLDV

> <PDB ID(s) of Target Chain>
4BAE

> <UniProt (SwissProt) Recommended Name of Target Chain>
DNA gyrase subunit B

> <UniProt (SwissProt) Entry Name of Target Chain>
GYRB_MYCSM

> <UniProt (SwissProt) Primary ID of Target Chain>
P0C559

> <UniProt (SwissProt) Secondary ID(s) of Target Chain>
P48355,Q59555

> <UniProt (SwissProt) Alternative ID(s) of Target Chain>


> <UniProt (TrEMBL) Submitted Name of Target Chain>


> <UniProt (TrEMBL) Entry Name of Target Chain>


> <UniProt (TrEMBL) Primary ID of Target Chain>


> <UniProt (TrEMBL) Secondary ID(s) of Target Chain>


> <UniProt (TrEMBL) Alternative ID(s) of Target Chain>


$$$$

  Mrv0541 11231422262D          

 25 27  0  0  0  0            999 V2000
   -4.3084   -3.4542    0.0000 N   0  0  0  0  0  0  0  0  0  0  0  0
   -4.9817   -2.9674    0.0000 C   0  0  0  0  0  0  0  0  0  0  0  0
   -4.7250   -2.1791    0.0000 C   0  0  0  0  0  0  0  0  0  0  0  0
   -3.8959   -2.1791    0.0000 C   0  0  0  0  0  0  0  0  0  0  0  0
   -3.6393   -2.9679    0.0000 C   0  0  0  0  0  0  0  0  0  0  0  0
   -2.9224   -3.3762    0.0000 C   0  0  0  0  0  0  0  0  0  0  0  0
   -2.9176   -4.2012    0.0000 O   0  0  0  0  0  0  0  0  0  0  0  0
   -2.2104   -2.9596    0.0000 N   0  0  0  0  0  0  0  0  0  0  0  0
   -1.4935   -3.3679    0.0000 C   0  0  0  0  0  0  0  0  0  0  0  0
   -1.4923   -4.1950    0.0000 C   0  0  0  0  0  0  0  0  0  0  0  0
   -0.7796   -4.6032    0.0000 C   0  0  0  0  0  0  0  0  0  0  0  0
   -0.0651   -4.1900    0.0000 N   0  0  0  0  0  0  0  0  0  0  0  0
   -0.0679   -3.3640    0.0000 C   0  0  0  0  0  0  0  0  0  0  0  0
   -0.7853   -2.9513    0.0000 C   0  0  0  0  0  0  0  0  0  0  0  0
    0.6503   -4.6010    0.0000 C   0  0  0  0  0  0  0  0  0  0  0  0
    0.6484   -5.4261    0.0000 N   0  0  0  0  0  0  0  0  0  0  0  0
    1.3629   -5.8370    0.0000 C   0  0  0  0  0  0  0  0  0  0  0  0
    2.0775   -5.4230    0.0000 C   0  0  0  0  0  0  0  0  0  0  0  0
    2.0731   -4.5937    0.0000 C   0  0  0  0  0  0  0  0  0  0  0  0
    1.3580   -4.1865    0.0000 C   0  0  0  0  0  0  0  0  0  0  0  0
    1.3642   -6.6620    0.0000 Cl  0  0  0  0  0  0  0  0  0  0  0  0
    2.7852   -4.1772    0.0000 C   0  0  0  0  0  0  0  0  0  0  0  0
    3.5020   -4.5857    0.0000 N   0  0  0  0  0  0  0  0  0  0  0  0
    2.7806   -3.3522    0.0000 O   0  0  0  0  0  0  0  0  0  0  0  0
   -5.7661   -3.2231    0.0000 C   0  0  0  0  0  0  0  0  0  0  0  0
  9 14  1  0  0  0  0
 10 11  1  0  0  0  0
 11 12  1  0  0  0  0
 12 13  1  0  0  0  0
 13 14  1  0  0  0  0
  6  7  2  0  0  0  0
 12 15  1  0  0  0  0
  1  2  1  0  0  0  0
 15 16  2  0  0  0  0
  6  8  1  0  0  0  0
 16 17  1  0  0  0  0
  3  4  1  0  0  0  0
 17 18  2  0  0  0  0
  8  9  1  0  0  0  0
 18 19  1  0  0  0  0
  9 10  1  0  0  0  0
 19 20  2  0  0  0  0
 20 15  1  0  0  0  0
  4  5  2  0  0  0  0
 17 21  1  0  0  0  0
  5  1  1  0  0  0  0
 19 22  1  0  0  0  0
  2  3  2  0  0  0  0
 22 23  1  0  0  0  0
  5  6  1  0  0  0  0
 22 24  2  0  0  0  0
  2 25  1  0  0  0  0
M  END
> <From> 
www.bindingDB.org

> <BindingDB Reactant_set_id>
50705123

> <Ligand InChI>
InChI=1S/C17H20ClN5O2/c1-10-2-3-13(20-10)17(25)21-12-4-6-23(7-5-12)15-9-11(16(19)24)8-14(18)22-15/h2-3,8-9,12,20H,4-7H2,1H3,(H2,19,24)(H,21,25)

> <Ligand InChI Key>
SJUVDTGGQJYTJG-UHFFFAOYSA-N

> <BindingDB MonomerID>
50358845

> <BindingDB Ligand Name>
CHEMBL1923430

> <Target Name Assigned by Curator or DataSource>
DNA Gyrase Subunit B

> <Target Source Organism According to Curator or DataSource>
Staphylococcus aureus

> <Ki (nM)>


> <IC50 (nM)>
 6900

> <Kd (nM)>


> <EC50 (nM)>


> <kon (M-1-s-1)>


> <koff (s-1)>


> <pH>


> <Temp C>


> <Curation/DataSource>
ChEMBL

> <Article DOI>
10.1016/j.bmcl.2011.10.010

> <PMID>
22041057

> <PubChem AID>


> <Patent Number>


> <Authors>
Sherer, BA; Hull, K; Green, O; Basarab, G; Hauck, S; Hill, P; Loch, JT; Mullen, G; Bist, S; Bryant, J; Boriack-Sjodin, A; Read, J; DeGrace, N; Uria-Nickelsen, M; Illingworth, RN; Eakin, AE

> <Institution>
AstraZeneca R&amp;D Boston

> <Link to Ligand in BindingDB>
http://www.bindingdb.org/bind/chemsearch/marvin/MolStructure.jsp?monomerid=50358845

> <Link to Ligand-Target Pair in BindingDB>
http://www.bindingdb.org/jsp/dbsearch/PrimarySearch_ki.jsp?energyterm=kJ/mole&tag=pol&polymerid=2626&target=DNA+Gyrase+Subunit+B&column=ki&startPg=0&Increment=50&submit=Search

> <Link to Ligand-Target Pair in BindingDB>
http://www.bindingdb.org/jsp/dbsearch/PrimarySearch_ki.jsp?energyterm=kJ/mole&tag=r21&monomerid=50358845&enzyme=DNA+Gyrase+Subunit+B&column=ki&startPg=0&Increment=50&submit=Search

> <Ligand HET ID in PDB>


> <PDB ID(s) for Ligand-Target Complex>


> <PubChem CID>
57394260

> <PubChem SID>
136962869

> <ChEBI ID of Ligand>


> <ChEMBL ID of Ligand>
CHEMBL1923430

> <DrugBank ID of Ligand>


> <IUPHAR_GRAC ID of Ligand>


> <KEGG ID of Ligand>


> <ZINC ID of Ligand>
ZINC73196629

> <Number of Protein Chains in Target (>1 implies a multichain complex)>
1

> <BindingDB Target Chain Sequence>
MVTALSDVNNTDNYGAGQIQVLEGLEAVRKRPGMYIGSTSERGLHHLVWEIVDNSIDEALAGYANQIEVVIEKDNWIKVTDNGRGIPVDIQEKMGRPAVEVILTVLHAGGKFGGGGYKVSGGLHGVGSSVVNALSQDLEVYVHRNETIYHQAYKKGVPQFDLKEVGTTDKTGTVIRFKADGEIFTETTVYNYETLQQRIRELAFLNKGIQITLRDERDEENVREDSYHYEGGIKSYVELLNENKEPIHDEPIYIHQSKDDIEVEIAIQYNSGYATNLLTYANNIHTYEGGTHEDGFKRALTRVLNSYGLSSKIMKEEKDRLSGEDTREGMTAIISIKHGDPQFEGQTKTKLGNSEVRQVVDKLFSEHFERFLYENPQVARTVVEKGIMAARARVAAKKAREVTRRKSALDVASLPGKLADCSSKSPEECEIFLVEGDSAGGSTKSGRDSRTQAILPLRGKILNVEKARLDRILNNNEIRQMITAFGTGIGGDFDLAKARYHKIVIMTDADVDGAHIRTLLLTFFYRFMRPLIEAGYVYIAQPPLYKLTQGKQKYYVYNDRELDKLKSELNPTPKWSIARYKGLGEMNADQLWETTMNPEHRALLQVKLEDAIEADQTFEMLMGDVVENRRQFIEDNAVYANLDF

> <PDB ID(s) of Target Chain>


> <UniProt (SwissProt) Recommended Name of Target Chain>
DNA gyrase subunit B

> <UniProt (SwissProt) Entry Name of Target Chain>
GYRB_STAAU

> <UniProt (SwissProt) Primary ID of Target Chain>
P0A0K8

> <UniProt (SwissProt) Secondary ID(s) of Target Chain>
P20832

> <UniProt (SwissProt) Alternative ID(s) of Target Chain>


> <UniProt (TrEMBL) Submitted Name of Target Chain>


> <UniProt (TrEMBL) Entry Name of Target Chain>


> <UniProt (TrEMBL) Primary ID of Target Chain>


> <UniProt (TrEMBL) Secondary ID(s) of Target Chain>


> <UniProt (TrEMBL) Alternative ID(s) of Target Chain>


$$$$

  SciTegic09081514182D

 32 35  0  0  0  0            999 V2000
   -2.6111    0.7486    0.0000 C   0  0
   -2.6111   -0.7486    0.0000 C   0  0
   -1.2964   -1.4973    0.0000 C   0  0
   -1.2964    1.4973    0.0000 C   0  0
    0.0000    0.7486    0.0000 C   0  0
    0.0000   -0.7486    0.0000 C   0  0
    1.2964   -1.4973    0.0000 N   0  0
    2.5929   -0.7486    0.0000 C   0  0
    2.5929    0.7486    0.0000 C   0  0
    1.2964    1.4973    0.0000 C   0  0
    1.2964    2.9980    0.0000 N   0  0
   -0.0014    3.7503    0.0000 C   0  0
    0.0011    5.2503    0.0000 C   0  0
    1.3014    5.9981    0.0000 C   0  0
    2.5992    5.2460    0.0000 C   0  0
    2.5967    3.7460    0.0000 C   0  0
    1.3069    7.4990    0.0000 N   0  0
    2.6090    8.2454    0.0000 C   0  0
    3.6462    7.6419    0.0000 O   0  0
    2.6145    9.7462    0.0000 N   0  0
    3.9166   10.4926    0.0000 C   0  0
    3.9243   11.9926    0.0000 C   0  0
    5.2272   12.7360    0.0000 C   0  0
    6.5224   11.9794    0.0000 C   0  0
    6.5147   10.4794    0.0000 C   0  0
    5.2119    9.7360    0.0000 C   0  0
    3.6321   -1.3486    0.0000 C   0  0
    7.8275   12.7204    0.0000 N   0  3
   -3.9091    1.5019    0.0000 O   0  0
   -3.9072    2.7019    0.0000 C   0  0
    8.8628   12.1137    0.0000 O   0  0
    7.8357   13.9204    0.0000 O   0  5
  1  2  2  0
  2  3  1  0
  3  6  2  0
  5  4  2  0
  4  1  1  0
  5  6  1  0
  6  7  1  0
  7  8  2  0
  8  9  1  0
  9 10  2  0
 10  5  1  0
 11 12  1  0
 11 16  1  0
 12 13  1  0
 13 14  1  0
 14 15  1  0
 15 16  1  0
 10 11  1  0
 14 17  1  0
 17 18  1  0
 18 19  2  0
 18 20  1  0
 20 21  1  0
 21 22  2  0
 22 23  1  0
 23 24  2  0
 24 25  1  0
 25 26  2  0
 26 21  1  0
  8 27  1  0
 24 28  1  0
  1 29  1  0
 29 30  1  0
 28 31  2  0
 28 32  1  0
M  CHG  2  28   1  32  -1
M  END
> <From> 
www.bindingDB.org

> <BindingDB Reactant_set_id>
50303808

> <Ligand InChI>
InChI=1S/C23H25N5O4/c1-15-13-22(20-14-19(32-2)7-8-21(20)24-15)27-11-9-17(10-12-27)26-23(29)25-16-3-5-18(6-4-16)28(30)31/h3-8,13-14,17H,9-12H2,1-2H3,(H2,25,26,29)

> <Ligand InChI Key>
PNVSISBSOQJHIH-UHFFFAOYSA-N

> <BindingDB MonomerID>
50066955

> <BindingDB Ligand Name>
CHEMBL3403251

> <Target Name Assigned by Curator or DataSource>
DNA gyrase subunit B

> <Target Source Organism According to Curator or DataSource>


> <Ki (nM)>


> <IC50 (nM)>
 6990

> <Kd (nM)>


> <EC50 (nM)>


> <kon (M-1-s-1)>


> <koff (s-1)>


> <pH>


> <Temp C>


> <Curation/DataSource>
ChEMBL

> <Article DOI>
10.1016/j.bmc.2015.03.004

> <PMID>
25801151

> <PubChem AID>


> <Patent Number>


> <Authors>
Medapi, B; Renuka, J; Saxena, S; Sridevi, JP; Medishetti, R; Kulkarni, P; Yogeeswari, P; Sriram, D

> <Institution>
Birla Institute of Technology&amp; Science-Pilani

> <Link to Ligand in BindingDB>
http://www.bindingdb.org/bind/chemsearch/marvin/MolStructure.jsp?monomerid=50066955

> <Link to Ligand-Target Pair in BindingDB>
http://www.bindingdb.org/jsp/dbsearch/PrimarySearch_ki.jsp?energyterm=kJ/mole&tag=pol&polymerid=50006452&target=DNA+gyrase+subunit+B&column=ki&startPg=0&Increment=50&submit=Search

> <Link to Ligand-Target Pair in BindingDB>
http://www.bindingdb.org/jsp/dbsearch/PrimarySearch_ki.jsp?energyterm=kJ/mole&tag=r21&monomerid=50066955&enzyme=DNA+gyrase+subunit+B&column=ki&startPg=0&Increment=50&submit=Search

> <Ligand HET ID in PDB>


> <PDB ID(s) for Ligand-Target Complex>


> <PubChem CID>
118729667

> <PubChem SID>
103961491

> <ChEBI ID of Ligand>


> <ChEMBL ID of Ligand>
CHEMBL33869

> <DrugBank ID of Ligand>


> <IUPHAR_GRAC ID of Ligand>


> <KEGG ID of Ligand>


> <ZINC ID of Ligand>
ZINC13494187

> <Number of Protein Chains in Target (>1 implies a multichain complex)>
1

> <BindingDB Target Chain Sequence>
MAAQKNNAPKEYGADSITILEGLEAVRKRPGMYIGSTGERGLHHLIWEVVDNAVDEAMAGFATRVDVKIHADGSVEVRDDGRGIPVEMHATGMPTIDVVMTQLHAGGKFDGETYAVSGGLHGVGVSVVNALSTRLEATVLRDGYEWFQYYDRSVPGKLKQGGETKETGTTIRFWADPEIFETTDYNFETVARRLQEMAFLNKGLTIELTDERVTAEEVVDDVVKDTAEAPKTADEKAAEATGPSKVKHRVFHYPGGLVDYVKHINRTKTPIQQSIIDFDGKGPGHEVEIAMQWNAGYSESVHTFANTINTHEGGTHEEGFRAALTSVVNRYAKDKKLLKDKDPNLTGDDIREGLAAVISVKVAEPQFEGQTKTKLGNTEVKSFVQKICNEQLQHWFEANPAEAKTVVNKAVSSAQARIAARKARELVRRKSATDIGGLPGKLADCRSTDPSKSELYVVEGDSAGGSAKSGRDSMFQAILPLRGKIINVEKARIDRVLKNTEVQSIITALGTGIHDEFDISKLRYHKIVLMADADVDGQHISTLLLTLLFRFMKPLVENGHIFLAQPPLYKLKWQRSEPEFAYSDRERDGLLEAGRAAGKKINVDDGIQRYKGLGEMDAKELWETTMDPSVRVLRQVTLDDAAAADELFSILMGEDVEARRSFITRNAKDVRFLDV

> <PDB ID(s) of Target Chain>
4BAE

> <UniProt (SwissProt) Recommended Name of Target Chain>
DNA gyrase subunit B

> <UniProt (SwissProt) Entry Name of Target Chain>
GYRB_MYCSM

> <UniProt (SwissProt) Primary ID of Target Chain>
P0C559

> <UniProt (SwissProt) Secondary ID(s) of Target Chain>
P48355,Q59555

> <UniProt (SwissProt) Alternative ID(s) of Target Chain>


> <UniProt (TrEMBL) Submitted Name of Target Chain>


> <UniProt (TrEMBL) Entry Name of Target Chain>


> <UniProt (TrEMBL) Primary ID of Target Chain>


> <UniProt (TrEMBL) Secondary ID(s) of Target Chain>


> <UniProt (TrEMBL) Alternative ID(s) of Target Chain>


$$$$

  SciTegic12211715342D

 28 30  0  0  0  0            999 V2000
    7.8894   -8.7600    0.0000 O   0  0
    7.4808   -8.0509    0.0000 C   0  0
    6.6636   -8.0509    0.0000 C   0  0
    6.1835   -7.3917    0.0000 C   0  0
    5.4063   -7.6423    0.0000 C   0  0
    4.7471   -7.1621    0.0000 Br  0  0
    5.4063   -8.4595    0.0000 C   0  0
    4.7471   -8.9396    0.0000 Br  0  0
    6.1835   -8.7100    0.0000 N   0  0
    7.8894   -7.3418    0.0000 N   0  0
    8.7066   -7.3418    0.0000 C   0  0
    9.1868   -8.0051    0.0000 N   0  0
    9.9640   -7.7504    0.0000 C   0  0
   10.6731   -8.1590    0.0000 C   0  0
   11.3822   -7.7504    0.0000 C   0  0
   11.3822   -6.9332    0.0000 C   0  0
   12.0871   -6.5246    0.0000 N   0  0
   12.7962   -6.9332    0.0000 C   0  0
   12.7962   -7.7504    0.0000 C   0  0
   13.5053   -8.1590    0.0000 C   0  0
   14.2103   -7.7504    0.0000 C   0  0
   14.9194   -8.1590    0.0000 O   0  0
   14.9194   -8.9762    0.0000 C   0  0
   14.2103   -6.9332    0.0000 O   0  0
   13.5053   -6.5246    0.0000 O   0  0
   10.6731   -6.5246    0.0000 C   0  0
    9.9640   -6.9332    0.0000 C   0  0
    9.1868   -6.6827    0.0000 S   0  0
  1  2  2  0
  2  3  1  0
  3  4  2  0
  4  5  1  0
  5  6  1  0
  5  7  2  0
  7  8  1  0
  7  9  1  0
  3  9  1  0
  2 10  1  0
 10 11  1  0
 11 12  2  0
 12 13  1  0
 13 14  2  0
 14 15  1  0
 15 16  2  0
 16 17  1  0
 17 18  1  0
 18 19  1  0
 19 20  1  0
 20 21  1  0
 21 22  1  0
 22 23  1  0
 21 24  2  0
 18 25  2  0
 16 26  1  0
 26 27  2  0
 13 27  1  0
 27 28  1  0
 11 28  1  0
M  END
> <From> 
www.bindingDB.org

> <BindingDB Reactant_set_id>
50524119

> <Ligand InChI>
InChI=1S/C17H14Br2N4O4S/c1-27-14(25)5-4-13(24)20-8-2-3-10-12(6-8)28-17(22-10)23-16(26)11-7-9(18)15(19)21-11/h2-3,6-7,21H,4-5H2,1H3,(H,20,24)(H,22,23,26)

> <Ligand InChI Key>
QAYLSVAIAFXWJM-UHFFFAOYSA-N

> <BindingDB MonomerID>
50198318

> <BindingDB Ligand Name>
CHEMBL3926428

> <Target Name Assigned by Curator or DataSource>
DNA Gyrase Subunit B

> <Target Source Organism According to Curator or DataSource>
Escherichia coli

> <Ki (nM)>


> <IC50 (nM)>
 7000

> <Kd (nM)>


> <EC50 (nM)>


> <kon (M-1-s-1)>


> <koff (s-1)>


> <pH>


> <Temp C>


> <Curation/DataSource>
ChEMBL

> <Article DOI>
10.1021/acs.jmedchem.6b00864

> <PMID>
27541007

> <PubChem AID>


> <Patent Number>


> <Authors>
Gjorgjieva, M; Tomaic, T; Barancokova, M; Katsamakas, S; Ila, J; Tammela, P; Peterlin Maic, L; Kikelj, D

> <Institution>
University of Ljubljana

> <Link to Ligand in BindingDB>
http://www.bindingdb.org/bind/chemsearch/marvin/MolStructure.jsp?monomerid=50198318

> <Link to Ligand-Target Pair in BindingDB>
http://www.bindingdb.org/jsp/dbsearch/PrimarySearch_ki.jsp?energyterm=kJ/mole&tag=pol&polymerid=2630&target=DNA+Gyrase+Subunit+B&column=ki&startPg=0&Increment=50&submit=Search

> <Link to Ligand-Target Pair in BindingDB>
http://www.bindingdb.org/jsp/dbsearch/PrimarySearch_ki.jsp?energyterm=kJ/mole&tag=r21&monomerid=50198318&enzyme=DNA+Gyrase+Subunit+B&column=ki&startPg=0&Increment=50&submit=Search

> <Ligand HET ID in PDB>


> <PDB ID(s) for Ligand-Target Complex>


> <PubChem CID>
134141683

> <PubChem SID>
375978202

> <ChEBI ID of Ligand>


> <ChEMBL ID of Ligand>


> <DrugBank ID of Ligand>


> <IUPHAR_GRAC ID of Ligand>


> <KEGG ID of Ligand>


> <ZINC ID of Ligand>


> <Number of Protein Chains in Target (>1 implies a multichain complex)>
1

> <BindingDB Target Chain Sequence>
MSNSYDSSSIKVLKGLDAVRKRPGMYIGDTDDGTGLHHMVFEVVDNAIDEALAGHCKEII
VTIHADNSVSVQDDGRGIPTGIHPEEGVSAAEVIMTVLHAGGKFDDNSYKVSGGLHGVGV
SVVNALSQKLELVIQREGKIHRQIYEHGVPQAPLAVTGETEKTGTMVRFWPSLETFTNVT
EFEYEILAKRLRELSFLNSGVSIRLRDKRDGKEDHFHYEGGIKAFVEYLNKNKTPIHPNI
FYFSTEKDGIGVEVALQWNDGFQENIYCFTNNIPQRDGGTHLAGFRAAMTRTLNAYMDKE
GYSKKAKVSATGDDAREGLIAVVSVKVPDPKFSSQTKDKLVSSEVKSAVEQQMNELLAEY
LLENPTDAKIVVGKIIDAARAREAARRAREMTRRKGALDLAGLPGKLADCQERDPALSEL
YLVEGDSAGGSAKQGRNRKNQAILPLKGKILNVEKARFDKMLSSQEVATLITALGCGIGR
DEYNPDKLRYHSIIIMTDADVDGSHIRTLLLTFFYRQMPEIVERGHVYIAQPPLYKVKKG
KQEQYIKDDEAMDQYQISIALDGATLHTNASAPALAGEALEKLVSEYNATQKMINRMERR
YPKAMLKELIYQPTLTEADLSDEQTVTRWVNALVSELNDKEQHGSQWKFDVHTNAEQNLF
EPIVRVRTHGVDTDYPLDHEFITGGEYRRICTLGEKLRGLLEEDAFIERGERRQPVASFE
QALDWLVKESRRGLSIQRYKGLGEMNPEQLWETTMDPESRRMLRVTVKDAIAADQLFTTL
MGDAVEPRRAFIEENALKAANIDI

> <PDB ID(s) of Target Chain>
1KZN,3G7E,3NUH,4DUH,4HYP,4KFG,4PRV,4PRX,4PU9,4WUB,4WUC,4WUD,4XTJ,4ZVI,5L3J,5MMN,5MMO,5MMP,5Z4H,5Z4O,5Z9B,5Z9E,5Z9F,5Z9L,5Z9M,5Z9N,5Z9Q,6ENG,6F86,6F8J,6F94,6F96

> <UniProt (SwissProt) Recommended Name of Target Chain>
DNA gyrase subunit B

> <UniProt (SwissProt) Entry Name of Target Chain>
GYRB_ECOLI

> <UniProt (SwissProt) Primary ID of Target Chain>
P0AES6

> <UniProt (SwissProt) Secondary ID(s) of Target Chain>
O08438,P06982,Q2M811

> <UniProt (SwissProt) Alternative ID(s) of Target Chain>


> <UniProt (TrEMBL) Submitted Name of Target Chain>


> <UniProt (TrEMBL) Entry Name of Target Chain>


> <UniProt (TrEMBL) Primary ID of Target Chain>


> <UniProt (TrEMBL) Secondary ID(s) of Target Chain>


> <UniProt (TrEMBL) Alternative ID(s) of Target Chain>


$$$$

  Mrv0541 04171609262D          

 28 31  0  0  0  0            999 V2000
   -1.4361    0.4117    0.0000 C   0  0  0  0  0  0  0  0  0  0  0  0
   -1.4361   -0.4117    0.0000 C   0  0  0  0  0  0  0  0  0  0  0  0
   -0.7130   -0.8235    0.0000 C   0  0  0  0  0  0  0  0  0  0  0  0
   -0.7130    0.8235    0.0000 C   0  0  0  0  0  0  0  0  0  0  0  0
    0.0000    0.4117    0.0000 C   0  0  0  0  0  0  0  0  0  0  0  0
    0.0000   -0.4117    0.0000 C   0  0  0  0  0  0  0  0  0  0  0  0
    0.7130   -0.8235    0.0000 N   0  0  0  0  0  0  0  0  0  0  0  0
    1.4261   -0.4117    0.0000 C   0  0  0  0  0  0  0  0  0  0  0  0
    1.4261    0.4117    0.0000 C   0  0  0  0  0  0  0  0  0  0  0  0
    0.7130    0.8235    0.0000 C   0  0  0  0  0  0  0  0  0  0  0  0
    0.7130    1.6489    0.0000 N   0  0  0  0  0  0  0  0  0  0  0  0
   -0.0008    2.0627    0.0000 C   0  0  0  0  0  0  0  0  0  0  0  0
    0.0006    2.8877    0.0000 C   0  0  0  0  0  0  0  0  0  0  0  0
    0.7158    3.2990    0.0000 C   0  0  0  0  0  0  0  0  0  0  0  0
    1.4296    2.8853    0.0000 C   0  0  0  0  0  0  0  0  0  0  0  0
    1.4282    2.0603    0.0000 C   0  0  0  0  0  0  0  0  0  0  0  0
    0.7188    4.1245    0.0000 N   0  0  0  0  0  0  0  0  0  0  0  0
    1.4350    4.5350    0.0000 C   0  0  0  0  0  0  0  0  0  0  0  0
    2.0054    4.2031    0.0000 S   0  0  0  0  0  0  0  0  0  0  0  0
    1.4380    5.3605    0.0000 N   0  0  0  0  0  0  0  0  0  0  0  0
    2.1541    5.7710    0.0000 C   0  0  0  0  0  0  0  0  0  0  0  0
    2.1584    6.5960    0.0000 C   0  0  0  0  0  0  0  0  0  0  0  0
    2.8750    7.0049    0.0000 C   0  0  0  0  0  0  0  0  0  0  0  0
    3.5874    6.5887    0.0000 C   0  0  0  0  0  0  0  0  0  0  0  0
    3.5831    5.7637    0.0000 C   0  0  0  0  0  0  0  0  0  0  0  0
    2.8666    5.3548    0.0000 C   0  0  0  0  0  0  0  0  0  0  0  0
    1.9977   -0.7417    0.0000 C   0  0  0  0  0  0  0  0  0  0  0  0
    4.1606    6.9158    0.0000 C   0  0  0  0  0  0  0  0  0  0  0  0
  1  2  4  0  0  0  0
  2  3  4  0  0  0  0
  3  6  4  0  0  0  0
  5  4  4  0  0  0  0
  4  1  4  0  0  0  0
  5  6  4  0  0  0  0
  6  7  4  0  0  0  0
  7  8  4  0  0  0  0
  8  9  4  0  0  0  0
  9 10  4  0  0  0  0
 10  5  4  0  0  0  0
 11 12  1  0  0  0  0
 11 16  1  0  0  0  0
 12 13  1  0  0  0  0
 13 14  1  0  0  0  0
 14 15  1  0  0  0  0
 15 16  1  0  0  0  0
 10 11  1  0  0  0  0
 14 17  1  0  0  0  0
 17 18  1  0  0  0  0
 18 19  2  0  0  0  0
 18 20  1  0  0  0  0
 20 21  1  0  0  0  0
 21 22  4  0  0  0  0
 22 23  4  0  0  0  0
 23 24  4  0  0  0  0
 24 25  4  0  0  0  0
 25 26  4  0  0  0  0
 26 21  4  0  0  0  0
  8 27  1  0  0  0  0
 24 28  1  0  0  0  0
M  END
> <From> 
www.bindingDB.org

> <BindingDB Reactant_set_id>
50303839

> <Ligand InChI>
InChI=1S/C23H26N4S/c1-16-7-9-18(10-8-16)25-23(28)26-19-11-13-27(14-12-19)22-15-17(2)24-21-6-4-3-5-20(21)22/h3-10,15,19H,11-14H2,1-2H3,(H2,25,26,28)

> <Ligand InChI Key>
NQUTUNDHQKVIDJ-UHFFFAOYSA-N

> <BindingDB MonomerID>
50067149

> <BindingDB Ligand Name>
CHEMBL3403270

> <Target Name Assigned by Curator or DataSource>
DNA gyrase subunit B

> <Target Source Organism According to Curator or DataSource>


> <Ki (nM)>


> <IC50 (nM)>
 7260

> <Kd (nM)>


> <EC50 (nM)>


> <kon (M-1-s-1)>


> <koff (s-1)>


> <pH>


> <Temp C>


> <Curation/DataSource>
ChEMBL

> <Article DOI>
10.1016/j.bmc.2015.03.004

> <PMID>
25801151

> <PubChem AID>


> <Patent Number>


> <Authors>
Medapi, B; Renuka, J; Saxena, S; Sridevi, JP; Medishetti, R; Kulkarni, P; Yogeeswari, P; Sriram, D

> <Institution>
Birla Institute of Technology&amp; Science-Pilani

> <Link to Ligand in BindingDB>
http://www.bindingdb.org/bind/chemsearch/marvin/MolStructure.jsp?monomerid=50067149

> <Link to Ligand-Target Pair in BindingDB>
http://www.bindingdb.org/jsp/dbsearch/PrimarySearch_ki.jsp?energyterm=kJ/mole&tag=pol&polymerid=50006452&target=DNA+gyrase+subunit+B&column=ki&startPg=0&Increment=50&submit=Search

> <Link to Ligand-Target Pair in BindingDB>
http://www.bindingdb.org/jsp/dbsearch/PrimarySearch_ki.jsp?energyterm=kJ/mole&tag=r21&monomerid=50067149&enzyme=DNA+gyrase+subunit+B&column=ki&startPg=0&Increment=50&submit=Search

> <Ligand HET ID in PDB>


> <PDB ID(s) for Ligand-Target Complex>


> <PubChem CID>
118729686

> <PubChem SID>
313071780

> <ChEBI ID of Ligand>


> <ChEMBL ID of Ligand>


> <DrugBank ID of Ligand>


> <IUPHAR_GRAC ID of Ligand>


> <KEGG ID of Ligand>


> <ZINC ID of Ligand>


> <Number of Protein Chains in Target (>1 implies a multichain complex)>
1

> <BindingDB Target Chain Sequence>
MAAQKNNAPKEYGADSITILEGLEAVRKRPGMYIGSTGERGLHHLIWEVVDNAVDEAMAGFATRVDVKIHADGSVEVRDDGRGIPVEMHATGMPTIDVVMTQLHAGGKFDGETYAVSGGLHGVGVSVVNALSTRLEATVLRDGYEWFQYYDRSVPGKLKQGGETKETGTTIRFWADPEIFETTDYNFETVARRLQEMAFLNKGLTIELTDERVTAEEVVDDVVKDTAEAPKTADEKAAEATGPSKVKHRVFHYPGGLVDYVKHINRTKTPIQQSIIDFDGKGPGHEVEIAMQWNAGYSESVHTFANTINTHEGGTHEEGFRAALTSVVNRYAKDKKLLKDKDPNLTGDDIREGLAAVISVKVAEPQFEGQTKTKLGNTEVKSFVQKICNEQLQHWFEANPAEAKTVVNKAVSSAQARIAARKARELVRRKSATDIGGLPGKLADCRSTDPSKSELYVVEGDSAGGSAKSGRDSMFQAILPLRGKIINVEKARIDRVLKNTEVQSIITALGTGIHDEFDISKLRYHKIVLMADADVDGQHISTLLLTLLFRFMKPLVENGHIFLAQPPLYKLKWQRSEPEFAYSDRERDGLLEAGRAAGKKINVDDGIQRYKGLGEMDAKELWETTMDPSVRVLRQVTLDDAAAADELFSILMGEDVEARRSFITRNAKDVRFLDV

> <PDB ID(s) of Target Chain>
4BAE

> <UniProt (SwissProt) Recommended Name of Target Chain>
DNA gyrase subunit B

> <UniProt (SwissProt) Entry Name of Target Chain>
GYRB_MYCSM

> <UniProt (SwissProt) Primary ID of Target Chain>
P0C559

> <UniProt (SwissProt) Secondary ID(s) of Target Chain>
P48355,Q59555

> <UniProt (SwissProt) Alternative ID(s) of Target Chain>


> <UniProt (TrEMBL) Submitted Name of Target Chain>


> <UniProt (TrEMBL) Entry Name of Target Chain>


> <UniProt (TrEMBL) Primary ID of Target Chain>


> <UniProt (TrEMBL) Secondary ID(s) of Target Chain>


> <UniProt (TrEMBL) Alternative ID(s) of Target Chain>


$$$$

  SciTegic12231722092D

 30 33  0  0  0  0            999 V2000
    9.0825   -6.8808    0.0000 C   0  0
    8.3691   -7.2786    0.0000 C   0  0
    9.0956   -6.0637    0.0000 O   0  0
    9.7829   -7.3001    0.0000 N   0  0
    8.3560   -8.0957    0.0000 N   0  0
    7.6426   -8.4976    0.0000 C   0  0
    7.6336   -9.3146    0.0000 C   0  0
    8.3340   -9.7298    0.0000 N   0  0
    9.0475   -9.3320    0.0000 C   0  0
    9.0606   -8.5150    0.0000 C   0  0
    8.3031  -12.1810    0.0000 N   0  0
    9.0124  -11.7832    0.0000 C   0  0
    9.0255  -10.9662    0.0000 C   0  0
    8.3210  -10.5469    0.0000 C   0  0
    7.6117  -10.9488    0.0000 C   0  0
    6.9071  -10.5295    0.0000 C   0  0
    6.1937  -10.9273    0.0000 C   0  0
    6.1847  -11.7443    0.0000 C   0  0
    6.8851  -12.1636    0.0000 C   0  0
    7.5986  -11.7659    0.0000 C   0  0
    5.4713  -12.1462    0.0000 Cl  0  0
   10.4964   -6.9023    0.0000 C   0  0
   11.2009   -7.3216    0.0000 C   0  0
   11.9144   -6.9197    0.0000 C   0  0
   11.9233   -6.1026    0.0000 C   0  0
   11.2229   -5.6833    0.0000 C   0  0
   10.5095   -6.0853    0.0000 C   0  0
   12.6368   -5.7049    0.0000 C   0  0
   13.3413   -6.1242    0.0000 O   0  0
   12.6498   -4.8878    0.0000 C   0  0
  1  2  1  0
  1  3  2  0
  1  4  1  0
  5  6  1  0
  6  7  1  0
  7  8  1  0
  8  9  1  0
  9 10  1  0
  5 10  1  0
 11 12  2  0
 12 13  1  0
 13 14  2  0
 14 15  1  0
 15 16  2  0
 16 17  1  0
 17 18  2  0
 18 19  1  0
 19 20  2  0
 11 20  1  0
 15 20  1  0
 18 21  1  0
  8 14  1  0
  2  5  1  0
 22 23  1  0
 23 24  2  0
 24 25  1  0
 25 26  2  0
 26 27  1  0
 22 27  2  0
 28 29  2  0
 28 30  1  0
 25 28  1  0
  4 22  1  0
M  END
> <From> 
www.bindingDB.org

> <BindingDB Reactant_set_id>
50528085

> <Ligand InChI>
InChI=1S/C23H23ClN4O2/c1-16(29)17-2-5-19(6-3-17)26-23(30)15-27-10-12-28(13-11-27)22-8-9-25-21-14-18(24)4-7-20(21)22/h2-9,14H,10-13,15H2,1H3,(H,26,30)

> <Ligand InChI Key>
SXHGXZVUVNLEPV-UHFFFAOYSA-N

> <BindingDB MonomerID>
50202229

> <BindingDB Ligand Name>
CHEMBL3968705

> <Target Name Assigned by Curator or DataSource>
DNA gyrase subunit B

> <Target Source Organism According to Curator or DataSource>


> <Ki (nM)>


> <IC50 (nM)>
 7600

> <Kd (nM)>


> <EC50 (nM)>


> <kon (M-1-s-1)>


> <koff (s-1)>


> <pH>


> <Temp C>


> <Curation/DataSource>
ChEMBL

> <Article DOI>
10.1016/j.ejmech.2016.06.042

> <PMID>
27371925

> <PubChem AID>


> <Patent Number>


> <Authors>
Jeankumar, VU; Reshma, RS; Vats, R; Janupally, R; Saxena, S; Yogeeswari, P; Sriram, D

> <Institution>
Birla Institute of Technology&amp; Science-Pilani

> <Link to Ligand in BindingDB>
http://www.bindingdb.org/bind/chemsearch/marvin/MolStructure.jsp?monomerid=50202229

> <Link to Ligand-Target Pair in BindingDB>
http://www.bindingdb.org/jsp/dbsearch/PrimarySearch_ki.jsp?energyterm=kJ/mole&tag=pol&polymerid=50006452&target=DNA+gyrase+subunit+B&column=ki&startPg=0&Increment=50&submit=Search

> <Link to Ligand-Target Pair in BindingDB>
http://www.bindingdb.org/jsp/dbsearch/PrimarySearch_ki.jsp?energyterm=kJ/mole&tag=r21&monomerid=50202229&enzyme=DNA+gyrase+subunit+B&column=ki&startPg=0&Increment=50&submit=Search

> <Ligand HET ID in PDB>


> <PDB ID(s) for Ligand-Target Complex>


> <PubChem CID>
134151131

> <PubChem SID>
375979597

> <ChEBI ID of Ligand>


> <ChEMBL ID of Ligand>


> <DrugBank ID of Ligand>


> <IUPHAR_GRAC ID of Ligand>


> <KEGG ID of Ligand>


> <ZINC ID of Ligand>


> <Number of Protein Chains in Target (>1 implies a multichain complex)>
1

> <BindingDB Target Chain Sequence>
MAAQKNNAPKEYGADSITILEGLEAVRKRPGMYIGSTGERGLHHLIWEVVDNAVDEAMAGFATRVDVKIHADGSVEVRDDGRGIPVEMHATGMPTIDVVMTQLHAGGKFDGETYAVSGGLHGVGVSVVNALSTRLEATVLRDGYEWFQYYDRSVPGKLKQGGETKETGTTIRFWADPEIFETTDYNFETVARRLQEMAFLNKGLTIELTDERVTAEEVVDDVVKDTAEAPKTADEKAAEATGPSKVKHRVFHYPGGLVDYVKHINRTKTPIQQSIIDFDGKGPGHEVEIAMQWNAGYSESVHTFANTINTHEGGTHEEGFRAALTSVVNRYAKDKKLLKDKDPNLTGDDIREGLAAVISVKVAEPQFEGQTKTKLGNTEVKSFVQKICNEQLQHWFEANPAEAKTVVNKAVSSAQARIAARKARELVRRKSATDIGGLPGKLADCRSTDPSKSELYVVEGDSAGGSAKSGRDSMFQAILPLRGKIINVEKARIDRVLKNTEVQSIITALGTGIHDEFDISKLRYHKIVLMADADVDGQHISTLLLTLLFRFMKPLVENGHIFLAQPPLYKLKWQRSEPEFAYSDRERDGLLEAGRAAGKKINVDDGIQRYKGLGEMDAKELWETTMDPSVRVLRQVTLDDAAAADELFSILMGEDVEARRSFITRNAKDVRFLDV

> <PDB ID(s) of Target Chain>
4BAE

> <UniProt (SwissProt) Recommended Name of Target Chain>
DNA gyrase subunit B

> <UniProt (SwissProt) Entry Name of Target Chain>
GYRB_MYCSM

> <UniProt (SwissProt) Primary ID of Target Chain>
P0C559

> <UniProt (SwissProt) Secondary ID(s) of Target Chain>
P48355,Q59555

> <UniProt (SwissProt) Alternative ID(s) of Target Chain>


> <UniProt (TrEMBL) Submitted Name of Target Chain>


> <UniProt (TrEMBL) Entry Name of Target Chain>


> <UniProt (TrEMBL) Primary ID of Target Chain>


> <UniProt (TrEMBL) Secondary ID(s) of Target Chain>


> <UniProt (TrEMBL) Alternative ID(s) of Target Chain>


$$$$

  SciTegic12241703562D

 26 29  0  0  0  0            999 V2000
    2.9277   -4.1844    0.0000 N   0  0
    2.2143   -4.5823    0.0000 C   0  0
    2.2014   -5.3994    0.0000 C   0  0
    2.9060   -5.8185    0.0000 N   0  0
    3.6194   -5.4207    0.0000 C   0  0
    3.6282   -4.6036    0.0000 C   0  0
    2.9366   -3.3673    0.0000 C   0  0
    3.6500   -2.9694    0.0000 N   0  0
    2.2361   -2.9481    0.0000 O   0  0
    3.6629   -2.1524    0.0000 C   0  0
    4.3763   -1.7504    0.0000 C   0  0
    4.3892   -0.9333    0.0000 C   0  0
    3.6846   -0.5182    0.0000 C   0  0
    2.9713   -0.9161    0.0000 C   0  0
    2.9624   -1.7332    0.0000 C   0  0
    2.8713   -8.2698    0.0000 N   0  0
    3.5847   -7.8719    0.0000 C   0  0
    3.5935   -7.0548    0.0000 C   0  0
    2.8930   -6.6356    0.0000 C   0  0
    2.1797   -7.0335    0.0000 C   0  0
    1.4792   -6.6143    0.0000 C   0  0
    0.7658   -7.0122    0.0000 C   0  0
    0.7529   -7.8334    0.0000 C   0  0
    1.4533   -8.2485    0.0000 C   0  0
    2.1708   -7.8506    0.0000 C   0  0
    0.0395   -8.2313    0.0000 Cl  0  0
  1  2  1  0
  2  3  1  0
  3  4  1  0
  4  5  1  0
  5  6  1  0
  1  6  1  0
  7  8  1  0
  7  9  2  0
  1  7  1  0
 10 11  1  0
 11 12  2  0
 12 13  1  0
 13 14  2  0
 14 15  1  0
 10 15  2  0
  8 10  1  0
 16 17  2  0
 17 18  1  0
 18 19  2  0
 19 20  1  0
 20 21  2  0
 21 22  1  0
 22 23  2  0
 23 24  1  0
 24 25  2  0
 16 25  1  0
 20 25  1  0
 23 26  1  0
  4 19  1  0
M  END
> <From> 
www.bindingDB.org

> <BindingDB Reactant_set_id>
50528070

> <Ligand InChI>
InChI=1S/C20H19ClN4O/c21-15-6-7-17-18(14-15)22-9-8-19(17)24-10-12-25(13-11-24)20(26)23-16-4-2-1-3-5-16/h1-9,14H,10-13H2,(H,23,26)

> <Ligand InChI Key>
ICASXVHIXTXGMF-UHFFFAOYSA-N

> <BindingDB MonomerID>
50202202

> <BindingDB Ligand Name>
CHEMBL3977363

> <Target Name Assigned by Curator or DataSource>
DNA gyrase subunit B

> <Target Source Organism According to Curator or DataSource>


> <Ki (nM)>


> <IC50 (nM)>
 7600

> <Kd (nM)>


> <EC50 (nM)>


> <kon (M-1-s-1)>


> <koff (s-1)>


> <pH>


> <Temp C>


> <Curation/DataSource>
ChEMBL

> <Article DOI>
10.1016/j.ejmech.2016.06.042

> <PMID>
27371925

> <PubChem AID>


> <Patent Number>


> <Authors>
Jeankumar, VU; Reshma, RS; Vats, R; Janupally, R; Saxena, S; Yogeeswari, P; Sriram, D

> <Institution>
Birla Institute of Technology&amp; Science-Pilani

> <Link to Ligand in BindingDB>
http://www.bindingdb.org/bind/chemsearch/marvin/MolStructure.jsp?monomerid=50202202

> <Link to Ligand-Target Pair in BindingDB>
http://www.bindingdb.org/jsp/dbsearch/PrimarySearch_ki.jsp?energyterm=kJ/mole&tag=pol&polymerid=50006452&target=DNA+gyrase+subunit+B&column=ki&startPg=0&Increment=50&submit=Search

> <Link to Ligand-Target Pair in BindingDB>
http://www.bindingdb.org/jsp/dbsearch/PrimarySearch_ki.jsp?energyterm=kJ/mole&tag=r21&monomerid=50202202&enzyme=DNA+gyrase+subunit+B&column=ki&startPg=0&Increment=50&submit=Search

> <Ligand HET ID in PDB>


> <PDB ID(s) for Ligand-Target Complex>


> <PubChem CID>
21101965

> <PubChem SID>
375979583

> <ChEBI ID of Ligand>


> <ChEMBL ID of Ligand>


> <DrugBank ID of Ligand>


> <IUPHAR_GRAC ID of Ligand>


> <KEGG ID of Ligand>


> <ZINC ID of Ligand>


> <Number of Protein Chains in Target (>1 implies a multichain complex)>
1

> <BindingDB Target Chain Sequence>
MAAQKNNAPKEYGADSITILEGLEAVRKRPGMYIGSTGERGLHHLIWEVVDNAVDEAMAGFATRVDVKIHADGSVEVRDDGRGIPVEMHATGMPTIDVVMTQLHAGGKFDGETYAVSGGLHGVGVSVVNALSTRLEATVLRDGYEWFQYYDRSVPGKLKQGGETKETGTTIRFWADPEIFETTDYNFETVARRLQEMAFLNKGLTIELTDERVTAEEVVDDVVKDTAEAPKTADEKAAEATGPSKVKHRVFHYPGGLVDYVKHINRTKTPIQQSIIDFDGKGPGHEVEIAMQWNAGYSESVHTFANTINTHEGGTHEEGFRAALTSVVNRYAKDKKLLKDKDPNLTGDDIREGLAAVISVKVAEPQFEGQTKTKLGNTEVKSFVQKICNEQLQHWFEANPAEAKTVVNKAVSSAQARIAARKARELVRRKSATDIGGLPGKLADCRSTDPSKSELYVVEGDSAGGSAKSGRDSMFQAILPLRGKIINVEKARIDRVLKNTEVQSIITALGTGIHDEFDISKLRYHKIVLMADADVDGQHISTLLLTLLFRFMKPLVENGHIFLAQPPLYKLKWQRSEPEFAYSDRERDGLLEAGRAAGKKINVDDGIQRYKGLGEMDAKELWETTMDPSVRVLRQVTLDDAAAADELFSILMGEDVEARRSFITRNAKDVRFLDV

> <PDB ID(s) of Target Chain>
4BAE

> <UniProt (SwissProt) Recommended Name of Target Chain>
DNA gyrase subunit B

> <UniProt (SwissProt) Entry Name of Target Chain>
GYRB_MYCSM

> <UniProt (SwissProt) Primary ID of Target Chain>
P0C559

> <UniProt (SwissProt) Secondary ID(s) of Target Chain>
P48355,Q59555

> <UniProt (SwissProt) Alternative ID(s) of Target Chain>


> <UniProt (TrEMBL) Submitted Name of Target Chain>


> <UniProt (TrEMBL) Entry Name of Target Chain>


> <UniProt (TrEMBL) Primary ID of Target Chain>


> <UniProt (TrEMBL) Secondary ID(s) of Target Chain>


> <UniProt (TrEMBL) Alternative ID(s) of Target Chain>


$$$$

  Mrv0541 03201611132D          

 32 35  0  0  0  0            999 V2000
   24.9505   -5.9826    0.0000 O   0  0  0  0  0  0  0  0  0  0  0  0
   25.4352   -5.3129    0.0000 C   0  0  0  0  0  0  0  0  0  0  0  0
   24.9505   -4.6474    0.0000 C   0  0  0  0  0  0  0  0  0  0  0  0
   24.1658   -4.9004    0.0000 C   0  0  0  0  0  0  0  0  0  0  0  0
   24.1658   -5.7254    0.0000 C   0  0  0  0  0  0  0  0  0  0  0  0
   23.4499   -4.4879    0.0000 C   0  0  0  0  0  0  0  0  0  0  0  0
   22.7340   -4.9004    0.0000 C   0  0  0  0  0  0  0  0  0  0  0  0
   22.7340   -5.7254    0.0000 C   0  0  0  0  0  0  0  0  0  0  0  0
   23.4499   -6.1379    0.0000 C   0  0  0  0  0  0  0  0  0  0  0  0
   26.2602   -5.3129    0.0000 C   0  0  0  0  0  0  0  0  0  0  0  0
   26.6727   -6.0288    0.0000 O   0  0  0  0  0  0  0  0  0  0  0  0
   26.6727   -4.5971    0.0000 O   0  0  0  0  0  0  0  0  0  0  0  0
   22.0224   -4.4879    0.0000 N   0  0  0  0  0  0  0  0  0  0  0  0
   21.3065   -4.9004    0.0000 C   0  0  0  0  0  0  0  0  0  0  0  0
   20.5907   -4.4879    0.0000 C   0  0  0  0  0  0  0  0  0  0  0  0
   20.5907   -3.6629    0.0000 N   0  0  0  0  0  0  0  0  0  0  0  0
   21.3065   -3.2504    0.0000 C   0  0  0  0  0  0  0  0  0  0  0  0
   22.0224   -3.6629    0.0000 C   0  0  0  0  0  0  0  0  0  0  0  0
   19.8789   -3.2504    0.0000 C   0  0  0  0  0  0  0  0  0  0  0  0
   19.1632   -3.6629    0.0000 N   0  0  0  0  0  0  0  0  0  0  0  0
   19.8789   -2.4254    0.0000 O   0  0  0  0  0  0  0  0  0  0  0  0
   18.4473   -3.2504    0.0000 C   0  0  0  0  0  0  0  0  0  0  0  0
   17.7356   -3.6629    0.0000 C   0  0  0  0  0  0  0  0  0  0  0  0
   17.0197   -3.2504    0.0000 C   0  0  0  0  0  0  0  0  0  0  0  0
   17.0197   -2.4254    0.0000 C   0  0  0  0  0  0  0  0  0  0  0  0
   17.7356   -2.0129    0.0000 C   0  0  0  0  0  0  0  0  0  0  0  0
   18.4473   -2.4254    0.0000 C   0  0  0  0  0  0  0  0  0  0  0  0
   16.3080   -2.0129    0.0000 C   0  0  0  0  0  0  0  0  0  0  0  0
   16.3080   -1.1879    0.0000 O   0  0  0  0  0  0  0  0  0  0  0  0
   15.5922   -2.4254    0.0000 C   0  0  0  0  0  0  0  0  0  0  0  0
   27.4977   -4.5971    0.0000 C   0  0  0  0  0  0  0  0  0  0  0  0
   27.9102   -3.8853    0.0000 C   0  0  0  0  0  0  0  0  0  0  0  0
  1  2  4  0  0  0  0
  2  3  4  0  0  0  0
  3  4  4  0  0  0  0
  4  5  4  0  0  0  0
  1  5  4  0  0  0  0
  6  7  4  0  0  0  0
  7  8  4  0  0  0  0
  8  9  4  0  0  0  0
  5  9  4  0  0  0  0
  4  6  4  0  0  0  0
 10 11  2  0  0  0  0
 10 12  1  0  0  0  0
  2 10  1  0  0  0  0
 13 14  1  0  0  0  0
 14 15  1  0  0  0  0
 15 16  1  0  0  0  0
 16 17  1  0  0  0  0
 17 18  1  0  0  0  0
 13 18  1  0  0  0  0
 19 20  1  0  0  0  0
 19 21  2  0  0  0  0
 22 23  4  0  0  0  0
 23 24  4  0  0  0  0
 24 25  4  0  0  0  0
 25 26  4  0  0  0  0
 26 27  4  0  0  0  0
 22 27  4  0  0  0  0
 28 29  2  0  0  0  0
 28 30  1  0  0  0  0
 25 28  1  0  0  0  0
 20 22  1  0  0  0  0
 16 19  1  0  0  0  0
  7 13  1  0  0  0  0
 31 32  1  0  0  0  0
 12 31  1  0  0  0  0
M  END
> <From> 
www.bindingDB.org

> <BindingDB Reactant_set_id>
50254209

> <Ligand InChI>
InChI=1S/C24H25N3O5/c1-3-31-23(29)22-15-18-14-20(8-9-21(18)32-22)26-10-12-27(13-11-26)24(30)25-19-6-4-17(5-7-19)16(2)28/h4-9,14-15H,3,10-13H2,1-2H3,(H,25,30)

> <Ligand InChI Key>
NIXMANJQIUWZHU-UHFFFAOYSA-N

> <BindingDB MonomerID>
50037191

> <BindingDB Ligand Name>
CHEMBL3355784

> <Target Name Assigned by Curator or DataSource>
DNA gyrase subunit B

> <Target Source Organism According to Curator or DataSource>


> <Ki (nM)>


> <IC50 (nM)>
 7860

> <Kd (nM)>


> <EC50 (nM)>


> <kon (M-1-s-1)>


> <koff (s-1)>


> <pH>


> <Temp C>


> <Curation/DataSource>
ChEMBL

> <Article DOI>
10.1016/j.bmc.2014.10.016

> <PMID>
25456076

> <PubChem AID>


> <Patent Number>


> <Authors>
Reddy, KI; Srihari, K; Renuka, J; Sree, KS; Chuppala, A; Jeankumar, VU; Sridevi, JP; Babu, KS; Yogeeswari, P; Sriram, D

> <Institution>
TBA

> <Link to Ligand in BindingDB>
http://www.bindingdb.org/bind/chemsearch/marvin/MolStructure.jsp?monomerid=50037191

> <Link to Ligand-Target Pair in BindingDB>
http://www.bindingdb.org/jsp/dbsearch/PrimarySearch_ki.jsp?energyterm=kJ/mole&tag=pol&polymerid=50006452&target=DNA+gyrase+subunit+B&column=ki&startPg=0&Increment=50&submit=Search

> <Link to Ligand-Target Pair in BindingDB>
http://www.bindingdb.org/jsp/dbsearch/PrimarySearch_ki.jsp?energyterm=kJ/mole&tag=r21&monomerid=50037191&enzyme=DNA+gyrase+subunit+B&column=ki&startPg=0&Increment=50&submit=Search

> <Ligand HET ID in PDB>


> <PDB ID(s) for Ligand-Target Complex>


> <PubChem CID>
118721084

> <PubChem SID>
313067068

> <ChEBI ID of Ligand>


> <ChEMBL ID of Ligand>


> <DrugBank ID of Ligand>


> <IUPHAR_GRAC ID of Ligand>


> <KEGG ID of Ligand>


> <ZINC ID of Ligand>


> <Number of Protein Chains in Target (>1 implies a multichain complex)>
1

> <BindingDB Target Chain Sequence>
MAAQKNNAPKEYGADSITILEGLEAVRKRPGMYIGSTGERGLHHLIWEVVDNAVDEAMAGFATRVDVKIHADGSVEVRDDGRGIPVEMHATGMPTIDVVMTQLHAGGKFDGETYAVSGGLHGVGVSVVNALSTRLEATVLRDGYEWFQYYDRSVPGKLKQGGETKETGTTIRFWADPEIFETTDYNFETVARRLQEMAFLNKGLTIELTDERVTAEEVVDDVVKDTAEAPKTADEKAAEATGPSKVKHRVFHYPGGLVDYVKHINRTKTPIQQSIIDFDGKGPGHEVEIAMQWNAGYSESVHTFANTINTHEGGTHEEGFRAALTSVVNRYAKDKKLLKDKDPNLTGDDIREGLAAVISVKVAEPQFEGQTKTKLGNTEVKSFVQKICNEQLQHWFEANPAEAKTVVNKAVSSAQARIAARKARELVRRKSATDIGGLPGKLADCRSTDPSKSELYVVEGDSAGGSAKSGRDSMFQAILPLRGKIINVEKARIDRVLKNTEVQSIITALGTGIHDEFDISKLRYHKIVLMADADVDGQHISTLLLTLLFRFMKPLVENGHIFLAQPPLYKLKWQRSEPEFAYSDRERDGLLEAGRAAGKKINVDDGIQRYKGLGEMDAKELWETTMDPSVRVLRQVTLDDAAAADELFSILMGEDVEARRSFITRNAKDVRFLDV

> <PDB ID(s) of Target Chain>
4BAE

> <UniProt (SwissProt) Recommended Name of Target Chain>
DNA gyrase subunit B

> <UniProt (SwissProt) Entry Name of Target Chain>
GYRB_MYCSM

> <UniProt (SwissProt) Primary ID of Target Chain>
P0C559

> <UniProt (SwissProt) Secondary ID(s) of Target Chain>
P48355,Q59555

> <UniProt (SwissProt) Alternative ID(s) of Target Chain>


> <UniProt (TrEMBL) Submitted Name of Target Chain>


> <UniProt (TrEMBL) Entry Name of Target Chain>


> <UniProt (TrEMBL) Primary ID of Target Chain>


> <UniProt (TrEMBL) Secondary ID(s) of Target Chain>


> <UniProt (TrEMBL) Alternative ID(s) of Target Chain>


$$$$

  SciTegic04201612532D

 34 37  0  0  0  0            999 V2000
   -1.2964    1.4973    0.0000 N   0  0
   -2.6111    0.7486    0.0000 C   0  0
   -2.6111   -0.7486    0.0000 C   0  0
   -1.2964   -1.4973    0.0000 C   0  0
    0.0000   -0.7486    0.0000 C   0  0
    1.2964   -1.4973    0.0000 C   0  0
    2.5929   -0.7486    0.0000 C   0  0
    2.5929    0.7486    0.0000 C   0  0
    1.2964    1.4973    0.0000 C   0  0
    0.0000    0.7486    0.0000 C   0  0
   -3.9122   -1.4966    0.0000 C   0  0
   -4.9506   -0.8952    0.0000 O   0  0
   -1.2907   -2.9981    0.0000 N   0  0
   -2.5870   -3.7544    0.0000 C   0  0
   -2.5835   -5.2544    0.0000 C   0  0
   -3.8807   -6.0076    0.0000 C   0  0
   -5.1815   -5.2608    0.0000 C   0  0
   -5.1852   -3.7608    0.0000 C   0  0
   -3.8880   -3.0076    0.0000 C   0  0
   -6.4810   -6.0117    0.0000 N   0  0
   -7.7815   -5.2626    0.0000 C   0  0
   -9.0810   -6.0135    0.0000 C   0  0
  -10.3815   -5.2644    0.0000 C   0  0
  -14.2755   -7.5217    0.0000 O   0  0
  -14.2791   -6.0217    0.0000 C   0  0
  -12.9819   -5.2686    0.0000 C   0  0
  -11.6810   -6.0154    0.0000 N   0  0
  -11.6774   -7.5154    0.0000 C   0  0
  -12.9746   -8.2686    0.0000 C   0  0
   -3.9138   -2.4966    0.0000 O   0  0
    3.8926   -1.4991    0.0000 C   0  0
    3.8934   -2.6991    0.0000 F   0  0
    4.9317   -0.8987    0.0000 F   0  0
    4.9322   -2.0986    0.0000 F   0  0
  1  2  2  0
  2  3  1  0
  3  4  2  0
  4  5  1  0
  5  6  2  0
  6  7  1  0
  7  8  2  0
  8  9  1  0
  9 10  2  0
  1 10  1  0
  5 10  1  0
 11 12  2  0
  3 11  1  0
 14 15  1  0
 15 16  2  0
 16 17  1  0
 17 18  2  0
 18 19  1  0
 14 19  2  0
 21 22  1  0
 22 23  1  0
 20 21  1  0
 24 25  1  0
 25 26  1  0
 26 27  1  0
 27 28  1  0
 28 29  1  0
 24 29  1  0
 23 27  1  0
 17 20  1  0
 13 14  1  0
  4 13  1  0
 11 30  1  0
 31 32  1  0
 31 33  1  0
 31 34  1  0
  7 31  1  0
M  END
> <From> 
www.bindingDB.org

> <BindingDB Reactant_set_id>
50426797

> <Ligand InChI>
InChI=1S/C24H25F3N4O3/c25-24(26,27)16-2-7-21-19(14-16)22(20(15-29-21)23(32)33)30-18-5-3-17(4-6-18)28-8-1-9-31-10-12-34-13-11-31/h2-7,14-15,28H,1,8-13H2,(H,29,30)(H,32,33)

> <Ligand InChI Key>
BUEOVKRGLJNKPN-UHFFFAOYSA-N

> <BindingDB MonomerID>
50126844

> <BindingDB Ligand Name>
CHEMBL3628521

> <Target Name Assigned by Curator or DataSource>
DNA gyrase subunit B

> <Target Source Organism According to Curator or DataSource>


> <Ki (nM)>


> <IC50 (nM)>
 7890

> <Kd (nM)>


> <EC50 (nM)>


> <kon (M-1-s-1)>


> <koff (s-1)>


> <pH>


> <Temp C>


> <Curation/DataSource>
ChEMBL

> <Article DOI>
10.1016/j.ejmech.2015.06.032

> <PMID>
26318054

> <PubChem AID>


> <Patent Number>


> <Authors>
Medapi, B; Suryadevara, P; Renuka, J; Sridevi, JP; Yogeeswari, P; Sriram, D

> <Institution>
Birla Institute of Technology&amp;Science

> <Link to Ligand in BindingDB>
http://www.bindingdb.org/bind/chemsearch/marvin/MolStructure.jsp?monomerid=50126844

> <Link to Ligand-Target Pair in BindingDB>
http://www.bindingdb.org/jsp/dbsearch/PrimarySearch_ki.jsp?energyterm=kJ/mole&tag=pol&polymerid=50006452&target=DNA+gyrase+subunit+B&column=ki&startPg=0&Increment=50&submit=Search

> <Link to Ligand-Target Pair in BindingDB>
http://www.bindingdb.org/jsp/dbsearch/PrimarySearch_ki.jsp?energyterm=kJ/mole&tag=r21&monomerid=50126844&enzyme=DNA+gyrase+subunit+B&column=ki&startPg=0&Increment=50&submit=Search

> <Ligand HET ID in PDB>


> <PDB ID(s) for Ligand-Target Complex>


> <PubChem CID>
122193522

> <PubChem SID>
104018912

> <ChEBI ID of Ligand>


> <ChEMBL ID of Ligand>


> <DrugBank ID of Ligand>


> <IUPHAR_GRAC ID of Ligand>


> <KEGG ID of Ligand>


> <ZINC ID of Ligand>
ZINC29315596

> <Number of Protein Chains in Target (>1 implies a multichain complex)>
1

> <BindingDB Target Chain Sequence>
MAAQKNNAPKEYGADSITILEGLEAVRKRPGMYIGSTGERGLHHLIWEVVDNAVDEAMAGFATRVDVKIHADGSVEVRDDGRGIPVEMHATGMPTIDVVMTQLHAGGKFDGETYAVSGGLHGVGVSVVNALSTRLEATVLRDGYEWFQYYDRSVPGKLKQGGETKETGTTIRFWADPEIFETTDYNFETVARRLQEMAFLNKGLTIELTDERVTAEEVVDDVVKDTAEAPKTADEKAAEATGPSKVKHRVFHYPGGLVDYVKHINRTKTPIQQSIIDFDGKGPGHEVEIAMQWNAGYSESVHTFANTINTHEGGTHEEGFRAALTSVVNRYAKDKKLLKDKDPNLTGDDIREGLAAVISVKVAEPQFEGQTKTKLGNTEVKSFVQKICNEQLQHWFEANPAEAKTVVNKAVSSAQARIAARKARELVRRKSATDIGGLPGKLADCRSTDPSKSELYVVEGDSAGGSAKSGRDSMFQAILPLRGKIINVEKARIDRVLKNTEVQSIITALGTGIHDEFDISKLRYHKIVLMADADVDGQHISTLLLTLLFRFMKPLVENGHIFLAQPPLYKLKWQRSEPEFAYSDRERDGLLEAGRAAGKKINVDDGIQRYKGLGEMDAKELWETTMDPSVRVLRQVTLDDAAAADELFSILMGEDVEARRSFITRNAKDVRFLDV

> <PDB ID(s) of Target Chain>
4BAE

> <UniProt (SwissProt) Recommended Name of Target Chain>
DNA gyrase subunit B

> <UniProt (SwissProt) Entry Name of Target Chain>
GYRB_MYCSM

> <UniProt (SwissProt) Primary ID of Target Chain>
P0C559

> <UniProt (SwissProt) Secondary ID(s) of Target Chain>
P48355,Q59555

> <UniProt (SwissProt) Alternative ID(s) of Target Chain>


> <UniProt (TrEMBL) Submitted Name of Target Chain>


> <UniProt (TrEMBL) Entry Name of Target Chain>


> <UniProt (TrEMBL) Primary ID of Target Chain>


> <UniProt (TrEMBL) Secondary ID(s) of Target Chain>


> <UniProt (TrEMBL) Alternative ID(s) of Target Chain>


$$$$

  SciTegic12221706412D

 27 29  0  0  0  0            999 V2000
   11.9043   -7.1536    0.0000 O   0  0
   12.3129   -7.8627    0.0000 C   0  0
   13.1301   -7.8627    0.0000 C   0  0
   13.5387   -7.1536    0.0000 C   0  0
   14.3559   -7.1536    0.0000 O   0  0
   14.7645   -7.8627    0.0000 C   0  0
   13.1301   -6.4486    0.0000 O   0  0
   11.9043   -8.5718    0.0000 N   0  0
   11.0871   -8.5718    0.0000 C   0  0
   10.6070   -7.9085    0.0000 N   0  0
    9.8297   -8.1632    0.0000 C   0  0
    9.1207   -7.7546    0.0000 C   0  0
    8.4116   -8.1632    0.0000 C   0  0
    8.4116   -8.9804    0.0000 C   0  0
    7.7066   -9.3890    0.0000 N   0  0
    6.9975   -8.9804    0.0000 C   0  0
    6.9975   -8.1632    0.0000 C   0  0
    7.6567   -7.6830    0.0000 C   0  0
    7.4061   -6.9058    0.0000 C   0  0
    7.8863   -6.2426    0.0000 Cl  0  0
    6.5889   -6.9058    0.0000 C   0  0
    6.1088   -6.2426    0.0000 Cl  0  0
    6.3384   -7.6830    0.0000 N   0  0
    6.2884   -9.3890    0.0000 O   0  0
    9.1207   -9.3890    0.0000 C   0  0
    9.8297   -8.9804    0.0000 C   0  0
   10.6070   -9.2309    0.0000 S   0  0
  1  2  2  0
  2  3  1  0
  3  4  1  0
  4  5  1  0
  5  6  1  0
  4  7  2  0
  2  8  1  0
  8  9  1  0
  9 10  2  0
 10 11  1  0
 11 12  2  0
 12 13  1  0
 13 14  2  0
 14 15  1  0
 15 16  1  0
 16 17  1  0
 17 18  2  0
 18 19  1  0
 19 20  1  0
 19 21  2  0
 21 22  1  0
 21 23  1  0
 17 23  1  0
 16 24  2  0
 14 25  1  0
 25 26  2  0
 11 26  1  0
 26 27  1  0
  9 27  1  0
M  END
> <From> 
www.bindingDB.org

> <BindingDB Reactant_set_id>
50524137

> <Ligand InChI>
InChI=1S/C16H12Cl2N4O4S/c1-26-13(24)6-12(23)22-16-21-9-3-2-7(4-11(9)27-16)19-15(25)10-5-8(17)14(18)20-10/h2-5,20H,6H2,1H3,(H,19,25)(H,21,22,23)

> <Ligand InChI Key>
PLQBXIFVOKFZHW-UHFFFAOYSA-N

> <BindingDB MonomerID>
50198316

> <BindingDB Ligand Name>
CHEMBL3948353

> <Target Name Assigned by Curator or DataSource>
DNA Gyrase Subunit B

> <Target Source Organism According to Curator or DataSource>
Escherichia coli

> <Ki (nM)>


> <IC50 (nM)>
 7900

> <Kd (nM)>


> <EC50 (nM)>


> <kon (M-1-s-1)>


> <koff (s-1)>


> <pH>


> <Temp C>


> <Curation/DataSource>
ChEMBL

> <Article DOI>
10.1021/acs.jmedchem.6b00864

> <PMID>
27541007

> <PubChem AID>


> <Patent Number>


> <Authors>
Gjorgjieva, M; Tomaic, T; Barancokova, M; Katsamakas, S; Ila, J; Tammela, P; Peterlin Maic, L; Kikelj, D

> <Institution>
University of Ljubljana

> <Link to Ligand in BindingDB>
http://www.bindingdb.org/bind/chemsearch/marvin/MolStructure.jsp?monomerid=50198316

> <Link to Ligand-Target Pair in BindingDB>
http://www.bindingdb.org/jsp/dbsearch/PrimarySearch_ki.jsp?energyterm=kJ/mole&tag=pol&polymerid=2630&target=DNA+Gyrase+Subunit+B&column=ki&startPg=0&Increment=50&submit=Search

> <Link to Ligand-Target Pair in BindingDB>
http://www.bindingdb.org/jsp/dbsearch/PrimarySearch_ki.jsp?energyterm=kJ/mole&tag=r21&monomerid=50198316&enzyme=DNA+Gyrase+Subunit+B&column=ki&startPg=0&Increment=50&submit=Search

> <Ligand HET ID in PDB>


> <PDB ID(s) for Ligand-Target Complex>


> <PubChem CID>
134146890

> <PubChem SID>
375978200

> <ChEBI ID of Ligand>


> <ChEMBL ID of Ligand>


> <DrugBank ID of Ligand>


> <IUPHAR_GRAC ID of Ligand>


> <KEGG ID of Ligand>


> <ZINC ID of Ligand>


> <Number of Protein Chains in Target (>1 implies a multichain complex)>
1

> <BindingDB Target Chain Sequence>
MSNSYDSSSIKVLKGLDAVRKRPGMYIGDTDDGTGLHHMVFEVVDNAIDEALAGHCKEII
VTIHADNSVSVQDDGRGIPTGIHPEEGVSAAEVIMTVLHAGGKFDDNSYKVSGGLHGVGV
SVVNALSQKLELVIQREGKIHRQIYEHGVPQAPLAVTGETEKTGTMVRFWPSLETFTNVT
EFEYEILAKRLRELSFLNSGVSIRLRDKRDGKEDHFHYEGGIKAFVEYLNKNKTPIHPNI
FYFSTEKDGIGVEVALQWNDGFQENIYCFTNNIPQRDGGTHLAGFRAAMTRTLNAYMDKE
GYSKKAKVSATGDDAREGLIAVVSVKVPDPKFSSQTKDKLVSSEVKSAVEQQMNELLAEY
LLENPTDAKIVVGKIIDAARAREAARRAREMTRRKGALDLAGLPGKLADCQERDPALSEL
YLVEGDSAGGSAKQGRNRKNQAILPLKGKILNVEKARFDKMLSSQEVATLITALGCGIGR
DEYNPDKLRYHSIIIMTDADVDGSHIRTLLLTFFYRQMPEIVERGHVYIAQPPLYKVKKG
KQEQYIKDDEAMDQYQISIALDGATLHTNASAPALAGEALEKLVSEYNATQKMINRMERR
YPKAMLKELIYQPTLTEADLSDEQTVTRWVNALVSELNDKEQHGSQWKFDVHTNAEQNLF
EPIVRVRTHGVDTDYPLDHEFITGGEYRRICTLGEKLRGLLEEDAFIERGERRQPVASFE
QALDWLVKESRRGLSIQRYKGLGEMNPEQLWETTMDPESRRMLRVTVKDAIAADQLFTTL
MGDAVEPRRAFIEENALKAANIDI

> <PDB ID(s) of Target Chain>
1KZN,3G7E,3NUH,4DUH,4HYP,4KFG,4PRV,4PRX,4PU9,4WUB,4WUC,4WUD,4XTJ,4ZVI,5L3J,5MMN,5MMO,5MMP,5Z4H,5Z4O,5Z9B,5Z9E,5Z9F,5Z9L,5Z9M,5Z9N,5Z9Q,6ENG,6F86,6F8J,6F94,6F96

> <UniProt (SwissProt) Recommended Name of Target Chain>
DNA gyrase subunit B

> <UniProt (SwissProt) Entry Name of Target Chain>
GYRB_ECOLI

> <UniProt (SwissProt) Primary ID of Target Chain>
P0AES6

> <UniProt (SwissProt) Secondary ID(s) of Target Chain>
O08438,P06982,Q2M811

> <UniProt (SwissProt) Alternative ID(s) of Target Chain>


> <UniProt (TrEMBL) Submitted Name of Target Chain>


> <UniProt (TrEMBL) Entry Name of Target Chain>


> <UniProt (TrEMBL) Primary ID of Target Chain>


> <UniProt (TrEMBL) Secondary ID(s) of Target Chain>


> <UniProt (TrEMBL) Alternative ID(s) of Target Chain>


$$$$

  SciTegic04201612532D

 36 39  0  0  0  0            999 V2000
   -1.2964    1.4973    0.0000 N   0  0
   -2.6111    0.7486    0.0000 C   0  0
   -2.6111   -0.7486    0.0000 C   0  0
   -1.2964   -1.4973    0.0000 C   0  0
    0.0000   -0.7486    0.0000 C   0  0
    1.2964   -1.4973    0.0000 C   0  0
    2.5929   -0.7486    0.0000 C   0  0
    2.5929    0.7486    0.0000 C   0  0
    1.2964    1.4973    0.0000 C   0  0
    0.0000    0.7486    0.0000 C   0  0
   -3.9122   -1.4966    0.0000 C   0  0
   -4.9506   -0.8952    0.0000 O   0  0
   -1.2907   -2.9981    0.0000 N   0  0
   -2.5870   -3.7544    0.0000 C   0  0
   -2.5835   -5.2544    0.0000 C   0  0
   -3.8807   -6.0076    0.0000 C   0  0
   -5.1815   -5.2608    0.0000 C   0  0
   -5.1852   -3.7608    0.0000 C   0  0
   -3.8880   -3.0076    0.0000 C   0  0
   -6.4810   -6.0117    0.0000 O   0  0
   -7.7815   -5.2626    0.0000 C   0  0
   -9.0810   -6.0135    0.0000 C   0  0
  -10.3815   -5.2644    0.0000 C   0  0
  -14.2755   -7.5217    0.0000 N   0  0
  -14.2791   -6.0217    0.0000 C   0  0
  -12.9819   -5.2686    0.0000 C   0  0
  -11.6810   -6.0154    0.0000 N   0  0
  -11.6774   -7.5154    0.0000 C   0  0
  -12.9746   -8.2686    0.0000 C   0  0
   -3.9138   -2.4966    0.0000 O   0  0
  -15.5719   -8.2779    0.0000 C   0  0
  -15.5672   -9.4779    0.0000 C   0  0
    3.8926   -1.4991    0.0000 C   0  0
    3.8934   -2.6991    0.0000 F   0  0
    4.9317   -0.8987    0.0000 F   0  0
    4.9322   -2.0986    0.0000 F   0  0
  1  2  2  0
  2  3  1  0
  3  4  2  0
  4  5  1  0
  5  6  2  0
  6  7  1  0
  7  8  2  0
  8  9  1  0
  9 10  2  0
  1 10  1  0
  5 10  1  0
 11 12  2  0
  3 11  1  0
 14 15  1  0
 15 16  2  0
 16 17  1  0
 17 18  2  0
 18 19  1  0
 14 19  2  0
 21 22  1  0
 22 23  1  0
 20 21  1  0
 24 25  1  0
 25 26  1  0
 26 27  1  0
 27 28  1  0
 28 29  1  0
 24 29  1  0
 23 27  1  0
 17 20  1  0
 13 14  1  0
  4 13  1  0
 11 30  1  0
 24 31  1  0
 31 32  1  0
 33 34  1  0
 33 35  1  0
 33 36  1  0
  7 33  1  0
M  END
> <From> 
www.bindingDB.org

> <BindingDB Reactant_set_id>
50426755

> <Ligand InChI>
InChI=1S/C26H29F3N4O3/c1-2-32-11-13-33(14-12-32)10-3-15-36-20-7-5-19(6-8-20)31-24-21-16-18(26(27,28)29)4-9-23(21)30-17-22(24)25(34)35/h4-9,16-17H,2-3,10-15H2,1H3,(H,30,31)(H,34,35)

> <Ligand InChI Key>
PWAKBXVKVUXRKR-UHFFFAOYSA-N

> <BindingDB MonomerID>
50126179

> <BindingDB Ligand Name>
CHEMBL3628525

> <Target Name Assigned by Curator or DataSource>
DNA gyrase subunit B

> <Target Source Organism According to Curator or DataSource>


> <Ki (nM)>


> <IC50 (nM)>
 7910

> <Kd (nM)>


> <EC50 (nM)>


> <kon (M-1-s-1)>


> <koff (s-1)>


> <pH>


> <Temp C>


> <Curation/DataSource>
ChEMBL

> <Article DOI>
10.1016/j.ejmech.2015.06.032

> <PMID>
26318054

> <PubChem AID>


> <Patent Number>


> <Authors>
Medapi, B; Suryadevara, P; Renuka, J; Sridevi, JP; Yogeeswari, P; Sriram, D

> <Institution>
Birla Institute of Technology&amp;Science

> <Link to Ligand in BindingDB>
http://www.bindingdb.org/bind/chemsearch/marvin/MolStructure.jsp?monomerid=50126179

> <Link to Ligand-Target Pair in BindingDB>
http://www.bindingdb.org/jsp/dbsearch/PrimarySearch_ki.jsp?energyterm=kJ/mole&tag=pol&polymerid=50006452&target=DNA+gyrase+subunit+B&column=ki&startPg=0&Increment=50&submit=Search

> <Link to Ligand-Target Pair in BindingDB>
http://www.bindingdb.org/jsp/dbsearch/PrimarySearch_ki.jsp?energyterm=kJ/mole&tag=r21&monomerid=50126179&enzyme=DNA+gyrase+subunit+B&column=ki&startPg=0&Increment=50&submit=Search

> <Ligand HET ID in PDB>


> <PDB ID(s) for Ligand-Target Complex>


> <PubChem CID>
122193526

> <PubChem SID>
321902386

> <ChEBI ID of Ligand>


> <ChEMBL ID of Ligand>


> <DrugBank ID of Ligand>


> <IUPHAR_GRAC ID of Ligand>


> <KEGG ID of Ligand>


> <ZINC ID of Ligand>


> <Number of Protein Chains in Target (>1 implies a multichain complex)>
1

> <BindingDB Target Chain Sequence>
MAAQKNNAPKEYGADSITILEGLEAVRKRPGMYIGSTGERGLHHLIWEVVDNAVDEAMAGFATRVDVKIHADGSVEVRDDGRGIPVEMHATGMPTIDVVMTQLHAGGKFDGETYAVSGGLHGVGVSVVNALSTRLEATVLRDGYEWFQYYDRSVPGKLKQGGETKETGTTIRFWADPEIFETTDYNFETVARRLQEMAFLNKGLTIELTDERVTAEEVVDDVVKDTAEAPKTADEKAAEATGPSKVKHRVFHYPGGLVDYVKHINRTKTPIQQSIIDFDGKGPGHEVEIAMQWNAGYSESVHTFANTINTHEGGTHEEGFRAALTSVVNRYAKDKKLLKDKDPNLTGDDIREGLAAVISVKVAEPQFEGQTKTKLGNTEVKSFVQKICNEQLQHWFEANPAEAKTVVNKAVSSAQARIAARKARELVRRKSATDIGGLPGKLADCRSTDPSKSELYVVEGDSAGGSAKSGRDSMFQAILPLRGKIINVEKARIDRVLKNTEVQSIITALGTGIHDEFDISKLRYHKIVLMADADVDGQHISTLLLTLLFRFMKPLVENGHIFLAQPPLYKLKWQRSEPEFAYSDRERDGLLEAGRAAGKKINVDDGIQRYKGLGEMDAKELWETTMDPSVRVLRQVTLDDAAAADELFSILMGEDVEARRSFITRNAKDVRFLDV

> <PDB ID(s) of Target Chain>
4BAE

> <UniProt (SwissProt) Recommended Name of Target Chain>
DNA gyrase subunit B

> <UniProt (SwissProt) Entry Name of Target Chain>
GYRB_MYCSM

> <UniProt (SwissProt) Primary ID of Target Chain>
P0C559

> <UniProt (SwissProt) Secondary ID(s) of Target Chain>
P48355,Q59555

> <UniProt (SwissProt) Alternative ID(s) of Target Chain>


> <UniProt (TrEMBL) Submitted Name of Target Chain>


> <UniProt (TrEMBL) Entry Name of Target Chain>


> <UniProt (TrEMBL) Primary ID of Target Chain>


> <UniProt (TrEMBL) Secondary ID(s) of Target Chain>


> <UniProt (TrEMBL) Alternative ID(s) of Target Chain>


$$$$

  Mrv0541 11171616332D          

 29 32  0  0  0  0            999 V2000
    9.5975   -7.5946    0.0000 O   0  0  0  0  0  0  0  0  0  0  0  0
   10.0824   -6.9272    0.0000 C   0  0  0  0  0  0  0  0  0  0  0  0
    9.5975   -6.2598    0.0000 C   0  0  0  0  0  0  0  0  0  0  0  0
    8.8129   -6.5147    0.0000 C   0  0  0  0  0  0  0  0  0  0  0  0
    8.8129   -7.3397    0.0000 C   0  0  0  0  0  0  0  0  0  0  0  0
    8.0984   -6.1022    0.0000 C   0  0  0  0  0  0  0  0  0  0  0  0
    7.3839   -6.5147    0.0000 C   0  0  0  0  0  0  0  0  0  0  0  0
    7.3839   -7.3397    0.0000 C   0  0  0  0  0  0  0  0  0  0  0  0
    8.0984   -7.7522    0.0000 C   0  0  0  0  0  0  0  0  0  0  0  0
   10.9074   -6.9272    0.0000 C   0  0  0  0  0  0  0  0  0  0  0  0
   11.3199   -7.6417    0.0000 O   0  0  0  0  0  0  0  0  0  0  0  0
   11.3199   -6.2127    0.0000 O   0  0  0  0  0  0  0  0  0  0  0  0
    6.6695   -6.1022    0.0000 N   0  0  0  0  0  0  0  0  0  0  0  0
    5.9550   -6.5147    0.0000 C   0  0  0  0  0  0  0  0  0  0  0  0
    5.2405   -6.1022    0.0000 C   0  0  0  0  0  0  0  0  0  0  0  0
    5.2405   -5.2772    0.0000 N   0  0  0  0  0  0  0  0  0  0  0  0
    5.9550   -4.8647    0.0000 C   0  0  0  0  0  0  0  0  0  0  0  0
    6.6695   -5.2772    0.0000 C   0  0  0  0  0  0  0  0  0  0  0  0
    4.5261   -4.8647    0.0000 C   0  0  0  0  0  0  0  0  0  0  0  0
    4.5261   -4.0397    0.0000 O   0  0  0  0  0  0  0  0  0  0  0  0
    3.0971   -4.8647    0.0000 C   0  0  0  0  0  0  0  0  0  0  0  0
    3.8116   -5.2772    0.0000 C   0  0  0  0  0  0  0  0  0  0  0  0
    3.8116   -6.1022    0.0000 C   0  0  0  0  0  0  0  0  0  0  0  0
    3.0971   -6.5147    0.0000 C   0  0  0  0  0  0  0  0  0  0  0  0
    2.3826   -6.1022    0.0000 C   0  0  0  0  0  0  0  0  0  0  0  0
    2.3826   -5.2772    0.0000 N   0  0  0  0  0  0  0  0  0  0  0  0
    3.0971   -4.0397    0.0000 Cl  0  0  0  0  0  0  0  0  0  0  0  0
   12.1449   -6.2127    0.0000 C   0  0  0  0  0  0  0  0  0  0  0  0
   12.5574   -5.4983    0.0000 C   0  0  0  0  0  0  0  0  0  0  0  0
  1  2  4  0  0  0  0
  2  3  4  0  0  0  0
  3  4  4  0  0  0  0
  4  5  4  0  0  0  0
  1  5  4  0  0  0  0
  6  7  4  0  0  0  0
  7  8  4  0  0  0  0
  8  9  4  0  0  0  0
  5  9  4  0  0  0  0
  4  6  4  0  0  0  0
 10 11  2  0  0  0  0
 10 12  1  0  0  0  0
  2 10  1  0  0  0  0
 13 14  1  0  0  0  0
 14 15  1  0  0  0  0
 15 16  1  0  0  0  0
 16 17  1  0  0  0  0
 17 18  1  0  0  0  0
 13 18  1  0  0  0  0
 19 20  2  0  0  0  0
 21 22  4  0  0  0  0
 22 23  4  0  0  0  0
 23 24  4  0  0  0  0
 24 25  4  0  0  0  0
 25 26  4  0  0  0  0
 21 26  4  0  0  0  0
 19 22  1  0  0  0  0
 21 27  1  0  0  0  0
 16 19  1  0  0  0  0
  7 13  1  0  0  0  0
 28 29  1  0  0  0  0
 12 28  1  0  0  0  0
M  END
> <From> 
www.bindingDB.org

> <BindingDB Reactant_set_id>
50369923

> <Ligand InChI>
InChI=1S/C21H20ClN3O4/c1-2-28-21(27)18-13-14-12-15(5-6-17(14)29-18)24-8-10-25(11-9-24)20(26)16-4-3-7-23-19(16)22/h3-7,12-13H,2,8-11H2,1H3

> <Ligand InChI Key>
XTBUSJZSODUSOV-UHFFFAOYSA-N

> <BindingDB MonomerID>
50100646

> <BindingDB Ligand Name>
CHEMBL3323169

> <Target Name Assigned by Curator or DataSource>
DNA gyrase subunit B

> <Target Source Organism According to Curator or DataSource>


> <Ki (nM)>


> <IC50 (nM)>
 7940

> <Kd (nM)>


> <EC50 (nM)>


> <kon (M-1-s-1)>


> <koff (s-1)>


> <pH>


> <Temp C>


> <Curation/DataSource>
ChEMBL

> <Article DOI>
10.1016/j.bmc.2014.06.041

> <PMID>
25129171

> <PubChem AID>


> <Patent Number>


> <Authors>
Renuka, J; Reddy, KI; Srihari, K; Jeankumar, VU; Shravan, M; Sridevi, JP; Yogeeswari, P; Babu, KS; Sriram, D

> <Institution>
Institute of Technology&amp; Science-Pilani

> <Link to Ligand in BindingDB>
http://www.bindingdb.org/bind/chemsearch/marvin/MolStructure.jsp?monomerid=50100646

> <Link to Ligand-Target Pair in BindingDB>
http://www.bindingdb.org/jsp/dbsearch/PrimarySearch_ki.jsp?energyterm=kJ/mole&tag=pol&polymerid=50006452&target=DNA+gyrase+subunit+B&column=ki&startPg=0&Increment=50&submit=Search

> <Link to Ligand-Target Pair in BindingDB>
http://www.bindingdb.org/jsp/dbsearch/PrimarySearch_ki.jsp?energyterm=kJ/mole&tag=r21&monomerid=50100646&enzyme=DNA+gyrase+subunit+B&column=ki&startPg=0&Increment=50&submit=Search

> <Ligand HET ID in PDB>


> <PDB ID(s) for Ligand-Target Complex>


> <PubChem CID>
118710580

> <PubChem SID>
318490755

> <ChEBI ID of Ligand>


> <ChEMBL ID of Ligand>


> <DrugBank ID of Ligand>


> <IUPHAR_GRAC ID of Ligand>


> <KEGG ID of Ligand>


> <ZINC ID of Ligand>


> <Number of Protein Chains in Target (>1 implies a multichain complex)>
1

> <BindingDB Target Chain Sequence>
MAAQKNNAPKEYGADSITILEGLEAVRKRPGMYIGSTGERGLHHLIWEVVDNAVDEAMAGFATRVDVKIHADGSVEVRDDGRGIPVEMHATGMPTIDVVMTQLHAGGKFDGETYAVSGGLHGVGVSVVNALSTRLEATVLRDGYEWFQYYDRSVPGKLKQGGETKETGTTIRFWADPEIFETTDYNFETVARRLQEMAFLNKGLTIELTDERVTAEEVVDDVVKDTAEAPKTADEKAAEATGPSKVKHRVFHYPGGLVDYVKHINRTKTPIQQSIIDFDGKGPGHEVEIAMQWNAGYSESVHTFANTINTHEGGTHEEGFRAALTSVVNRYAKDKKLLKDKDPNLTGDDIREGLAAVISVKVAEPQFEGQTKTKLGNTEVKSFVQKICNEQLQHWFEANPAEAKTVVNKAVSSAQARIAARKARELVRRKSATDIGGLPGKLADCRSTDPSKSELYVVEGDSAGGSAKSGRDSMFQAILPLRGKIINVEKARIDRVLKNTEVQSIITALGTGIHDEFDISKLRYHKIVLMADADVDGQHISTLLLTLLFRFMKPLVENGHIFLAQPPLYKLKWQRSEPEFAYSDRERDGLLEAGRAAGKKINVDDGIQRYKGLGEMDAKELWETTMDPSVRVLRQVTLDDAAAADELFSILMGEDVEARRSFITRNAKDVRFLDV

> <PDB ID(s) of Target Chain>
4BAE

> <UniProt (SwissProt) Recommended Name of Target Chain>
DNA gyrase subunit B

> <UniProt (SwissProt) Entry Name of Target Chain>
GYRB_MYCSM

> <UniProt (SwissProt) Primary ID of Target Chain>
P0C559

> <UniProt (SwissProt) Secondary ID(s) of Target Chain>
P48355,Q59555

> <UniProt (SwissProt) Alternative ID(s) of Target Chain>


> <UniProt (TrEMBL) Submitted Name of Target Chain>


> <UniProt (TrEMBL) Entry Name of Target Chain>


> <UniProt (TrEMBL) Primary ID of Target Chain>


> <UniProt (TrEMBL) Secondary ID(s) of Target Chain>


> <UniProt (TrEMBL) Alternative ID(s) of Target Chain>


$$$$

  Mrv0541 03201611132D          

 31 34  0  0  0  0            999 V2000
   27.5108  -13.3241    0.0000 O   0  0  0  0  0  0  0  0  0  0  0  0
   27.9913  -12.6545    0.0000 C   0  0  0  0  0  0  0  0  0  0  0  0
   27.5108  -11.9891    0.0000 C   0  0  0  0  0  0  0  0  0  0  0  0
   26.7220  -12.2420    0.0000 C   0  0  0  0  0  0  0  0  0  0  0  0
   26.7220  -13.0670    0.0000 C   0  0  0  0  0  0  0  0  0  0  0  0
   26.0103  -11.8295    0.0000 C   0  0  0  0  0  0  0  0  0  0  0  0
   25.2944  -12.2420    0.0000 C   0  0  0  0  0  0  0  0  0  0  0  0
   25.2944  -13.0670    0.0000 C   0  0  0  0  0  0  0  0  0  0  0  0
   26.0103  -13.4795    0.0000 C   0  0  0  0  0  0  0  0  0  0  0  0
   28.8163  -12.6545    0.0000 C   0  0  0  0  0  0  0  0  0  0  0  0
   29.2288  -13.3704    0.0000 O   0  0  0  0  0  0  0  0  0  0  0  0
   29.2288  -11.9387    0.0000 O   0  0  0  0  0  0  0  0  0  0  0  0
   24.5828  -11.8295    0.0000 N   0  0  0  0  0  0  0  0  0  0  0  0
   23.8670  -12.2420    0.0000 C   0  0  0  0  0  0  0  0  0  0  0  0
   23.1511  -11.8295    0.0000 C   0  0  0  0  0  0  0  0  0  0  0  0
   23.1511  -11.0045    0.0000 N   0  0  0  0  0  0  0  0  0  0  0  0
   23.8670  -10.5920    0.0000 C   0  0  0  0  0  0  0  0  0  0  0  0
   24.5828  -11.0045    0.0000 C   0  0  0  0  0  0  0  0  0  0  0  0
   22.4394  -10.5920    0.0000 C   0  0  0  0  0  0  0  0  0  0  0  0
   21.7235  -11.0045    0.0000 N   0  0  0  0  0  0  0  0  0  0  0  0
   22.4394   -9.7670    0.0000 O   0  0  0  0  0  0  0  0  0  0  0  0
   21.0076  -10.5920    0.0000 C   0  0  0  0  0  0  0  0  0  0  0  0
   20.2919  -11.0045    0.0000 C   0  0  0  0  0  0  0  0  0  0  0  0
   19.5801  -10.5920    0.0000 C   0  0  0  0  0  0  0  0  0  0  0  0
   19.5801   -9.7670    0.0000 C   0  0  0  0  0  0  0  0  0  0  0  0
   20.2919   -9.3545    0.0000 C   0  0  0  0  0  0  0  0  0  0  0  0
   21.0076   -9.7670    0.0000 C   0  0  0  0  0  0  0  0  0  0  0  0
   18.8643   -9.3545    0.0000 O   0  0  0  0  0  0  0  0  0  0  0  0
   18.1525   -9.7670    0.0000 C   0  0  0  0  0  0  0  0  0  0  0  0
   30.0538  -11.9387    0.0000 C   0  0  0  0  0  0  0  0  0  0  0  0
   30.4663  -11.2269    0.0000 C   0  0  0  0  0  0  0  0  0  0  0  0
  1  2  4  0  0  0  0
  2  3  4  0  0  0  0
  3  4  4  0  0  0  0
  4  5  4  0  0  0  0
  1  5  4  0  0  0  0
  6  7  4  0  0  0  0
  7  8  4  0  0  0  0
  8  9  4  0  0  0  0
  5  9  4  0  0  0  0
  4  6  4  0  0  0  0
 10 11  2  0  0  0  0
 10 12  1  0  0  0  0
  2 10  1  0  0  0  0
 13 14  1  0  0  0  0
 14 15  1  0  0  0  0
 15 16  1  0  0  0  0
 16 17  1  0  0  0  0
 17 18  1  0  0  0  0
 13 18  1  0  0  0  0
 19 20  1  0  0  0  0
 19 21  2  0  0  0  0
 22 23  4  0  0  0  0
 23 24  4  0  0  0  0
 24 25  4  0  0  0  0
 25 26  4  0  0  0  0
 26 27  4  0  0  0  0
 22 27  4  0  0  0  0
 28 29  1  0  0  0  0
 25 28  1  0  0  0  0
 20 22  1  0  0  0  0
 16 19  1  0  0  0  0
  7 13  1  0  0  0  0
 30 31  1  0  0  0  0
 12 30  1  0  0  0  0
M  END
> <From> 
www.bindingDB.org

> <BindingDB Reactant_set_id>
50254207

> <Ligand InChI>
InChI=1S/C23H25N3O5/c1-3-30-22(27)21-15-16-14-18(6-9-20(16)31-21)25-10-12-26(13-11-25)23(28)24-17-4-7-19(29-2)8-5-17/h4-9,14-15H,3,10-13H2,1-2H3,(H,24,28)

> <Ligand InChI Key>
VYTCUOLTXSZUCF-UHFFFAOYSA-N

> <BindingDB MonomerID>
50037095

> <BindingDB Ligand Name>
CHEMBL3355786

> <Target Name Assigned by Curator or DataSource>
DNA gyrase subunit B

> <Target Source Organism According to Curator or DataSource>


> <Ki (nM)>


> <IC50 (nM)>
 8190

> <Kd (nM)>


> <EC50 (nM)>


> <kon (M-1-s-1)>


> <koff (s-1)>


> <pH>


> <Temp C>


> <Curation/DataSource>
ChEMBL

> <Article DOI>
10.1016/j.bmc.2014.10.016

> <PMID>
25456076

> <PubChem AID>


> <Patent Number>


> <Authors>
Reddy, KI; Srihari, K; Renuka, J; Sree, KS; Chuppala, A; Jeankumar, VU; Sridevi, JP; Babu, KS; Yogeeswari, P; Sriram, D

> <Institution>
TBA

> <Link to Ligand in BindingDB>
http://www.bindingdb.org/bind/chemsearch/marvin/MolStructure.jsp?monomerid=50037095

> <Link to Ligand-Target Pair in BindingDB>
http://www.bindingdb.org/jsp/dbsearch/PrimarySearch_ki.jsp?energyterm=kJ/mole&tag=pol&polymerid=50006452&target=DNA+gyrase+subunit+B&column=ki&startPg=0&Increment=50&submit=Search

> <Link to Ligand-Target Pair in BindingDB>
http://www.bindingdb.org/jsp/dbsearch/PrimarySearch_ki.jsp?energyterm=kJ/mole&tag=r21&monomerid=50037095&enzyme=DNA+gyrase+subunit+B&column=ki&startPg=0&Increment=50&submit=Search

> <Ligand HET ID in PDB>


> <PDB ID(s) for Ligand-Target Complex>


> <PubChem CID>
118721086

> <PubChem SID>
313067066

> <ChEBI ID of Ligand>


> <ChEMBL ID of Ligand>


> <DrugBank ID of Ligand>


> <IUPHAR_GRAC ID of Ligand>


> <KEGG ID of Ligand>


> <ZINC ID of Ligand>


> <Number of Protein Chains in Target (>1 implies a multichain complex)>
1

> <BindingDB Target Chain Sequence>
MAAQKNNAPKEYGADSITILEGLEAVRKRPGMYIGSTGERGLHHLIWEVVDNAVDEAMAGFATRVDVKIHADGSVEVRDDGRGIPVEMHATGMPTIDVVMTQLHAGGKFDGETYAVSGGLHGVGVSVVNALSTRLEATVLRDGYEWFQYYDRSVPGKLKQGGETKETGTTIRFWADPEIFETTDYNFETVARRLQEMAFLNKGLTIELTDERVTAEEVVDDVVKDTAEAPKTADEKAAEATGPSKVKHRVFHYPGGLVDYVKHINRTKTPIQQSIIDFDGKGPGHEVEIAMQWNAGYSESVHTFANTINTHEGGTHEEGFRAALTSVVNRYAKDKKLLKDKDPNLTGDDIREGLAAVISVKVAEPQFEGQTKTKLGNTEVKSFVQKICNEQLQHWFEANPAEAKTVVNKAVSSAQARIAARKARELVRRKSATDIGGLPGKLADCRSTDPSKSELYVVEGDSAGGSAKSGRDSMFQAILPLRGKIINVEKARIDRVLKNTEVQSIITALGTGIHDEFDISKLRYHKIVLMADADVDGQHISTLLLTLLFRFMKPLVENGHIFLAQPPLYKLKWQRSEPEFAYSDRERDGLLEAGRAAGKKINVDDGIQRYKGLGEMDAKELWETTMDPSVRVLRQVTLDDAAAADELFSILMGEDVEARRSFITRNAKDVRFLDV

> <PDB ID(s) of Target Chain>
4BAE

> <UniProt (SwissProt) Recommended Name of Target Chain>
DNA gyrase subunit B

> <UniProt (SwissProt) Entry Name of Target Chain>
GYRB_MYCSM

> <UniProt (SwissProt) Primary ID of Target Chain>
P0C559

> <UniProt (SwissProt) Secondary ID(s) of Target Chain>
P48355,Q59555

> <UniProt (SwissProt) Alternative ID(s) of Target Chain>


> <UniProt (TrEMBL) Submitted Name of Target Chain>


> <UniProt (TrEMBL) Entry Name of Target Chain>


> <UniProt (TrEMBL) Primary ID of Target Chain>


> <UniProt (TrEMBL) Secondary ID(s) of Target Chain>


> <UniProt (TrEMBL) Alternative ID(s) of Target Chain>


$$$$

  SciTegic12231721052D

 27 31  0  0  0  0            999 V2000
   10.9156   -9.7305    0.0000 N   0  0
   11.6209   -9.3225    0.0000 C   0  0
   11.6215   -8.5053    0.0000 C   0  0
   10.9128   -8.0961    0.0000 C   0  0
   10.2075   -8.5042    0.0000 C   0  0
    9.4987   -8.0950    0.0000 C   0  0
    8.7934   -8.5030    0.0000 C   0  0
    8.7928   -9.3202    0.0000 C   0  0
    9.4974   -9.7294    0.0000 C   0  0
   10.2068   -9.3213    0.0000 C   0  0
    8.0834   -9.7282    0.0000 Cl  0  0
   10.9134   -7.2789    0.0000 N   0  0
   11.6229   -6.8709    0.0000 C   0  0
   11.6235   -6.0537    0.0000 C   0  0
   10.9148   -5.6446    0.0000 N   0  0
   10.2095   -6.0526    0.0000 C   0  0
   10.2088   -6.8698    0.0000 C   0  0
   10.9154   -4.8274    0.0000 C   0  0
   12.5122   -3.4348    0.0000 N   0  0
   11.7095   -3.6049    0.0000 C   0  0
   11.6248   -4.4193    0.0000 C   0  0
   12.3719   -4.7543    0.0000 C   0  0
   12.6218   -5.5276    0.0000 C   0  0
   13.4242   -5.6990    0.0000 C   0  0
   13.9684   -5.0930    0.0000 C   0  0
   13.7184   -4.3156    0.0000 C   0  0
   12.9202   -4.1442    0.0000 C   0  0
  1  2  2  0
  2  3  1  0
  3  4  2  0
  4  5  1  0
  5  6  2  0
  6  7  1  0
  7  8  2  0
  8  9  1  0
  9 10  2  0
  1 10  1  0
  5 10  1  0
  8 11  1  0
 12 13  1  0
 13 14  1  0
 14 15  1  0
 15 16  1  0
 16 17  1  0
 12 17  1  0
 19 20  1  0
 20 21  2  0
 21 22  1  0
 22 23  1  0
 23 24  2  0
 24 25  1  0
 25 26  2  0
 26 27  1  0
 19 27  1  0
 22 27  2  0
 18 21  1  0
 15 18  1  0
  4 12  1  0
M  END
> <From> 
www.bindingDB.org

> <BindingDB Reactant_set_id>
50528062

> <Ligand InChI>
InChI=1S/C22H21ClN4/c23-17-5-6-19-21(13-17)24-8-7-22(19)27-11-9-26(10-12-27)15-16-14-25-20-4-2-1-3-18(16)20/h1-8,13-14,25H,9-12,15H2

> <Ligand InChI Key>
YSZQCJMJIIWGKU-UHFFFAOYSA-N

> <BindingDB MonomerID>
50202017

> <BindingDB Ligand Name>
CHEMBL3967142

> <Target Name Assigned by Curator or DataSource>
DNA gyrase subunit B

> <Target Source Organism According to Curator or DataSource>


> <Ki (nM)>


> <IC50 (nM)>
 8300

> <Kd (nM)>


> <EC50 (nM)>


> <kon (M-1-s-1)>


> <koff (s-1)>


> <pH>


> <Temp C>


> <Curation/DataSource>
ChEMBL

> <Article DOI>
10.1016/j.ejmech.2016.06.042

> <PMID>
27371925

> <PubChem AID>


> <Patent Number>


> <Authors>
Jeankumar, VU; Reshma, RS; Vats, R; Janupally, R; Saxena, S; Yogeeswari, P; Sriram, D

> <Institution>
Birla Institute of Technology&amp; Science-Pilani

> <Link to Ligand in BindingDB>
http://www.bindingdb.org/bind/chemsearch/marvin/MolStructure.jsp?monomerid=50202017

> <Link to Ligand-Target Pair in BindingDB>
http://www.bindingdb.org/jsp/dbsearch/PrimarySearch_ki.jsp?energyterm=kJ/mole&tag=pol&polymerid=50006452&target=DNA+gyrase+subunit+B&column=ki&startPg=0&Increment=50&submit=Search

> <Link to Ligand-Target Pair in BindingDB>
http://www.bindingdb.org/jsp/dbsearch/PrimarySearch_ki.jsp?energyterm=kJ/mole&tag=r21&monomerid=50202017&enzyme=DNA+gyrase+subunit+B&column=ki&startPg=0&Increment=50&submit=Search

> <Ligand HET ID in PDB>


> <PDB ID(s) for Ligand-Target Complex>


> <PubChem CID>
134149838

> <PubChem SID>
375979576

> <ChEBI ID of Ligand>


> <ChEMBL ID of Ligand>


> <DrugBank ID of Ligand>


> <IUPHAR_GRAC ID of Ligand>


> <KEGG ID of Ligand>


> <ZINC ID of Ligand>


> <Number of Protein Chains in Target (>1 implies a multichain complex)>
1

> <BindingDB Target Chain Sequence>
MAAQKNNAPKEYGADSITILEGLEAVRKRPGMYIGSTGERGLHHLIWEVVDNAVDEAMAGFATRVDVKIHADGSVEVRDDGRGIPVEMHATGMPTIDVVMTQLHAGGKFDGETYAVSGGLHGVGVSVVNALSTRLEATVLRDGYEWFQYYDRSVPGKLKQGGETKETGTTIRFWADPEIFETTDYNFETVARRLQEMAFLNKGLTIELTDERVTAEEVVDDVVKDTAEAPKTADEKAAEATGPSKVKHRVFHYPGGLVDYVKHINRTKTPIQQSIIDFDGKGPGHEVEIAMQWNAGYSESVHTFANTINTHEGGTHEEGFRAALTSVVNRYAKDKKLLKDKDPNLTGDDIREGLAAVISVKVAEPQFEGQTKTKLGNTEVKSFVQKICNEQLQHWFEANPAEAKTVVNKAVSSAQARIAARKARELVRRKSATDIGGLPGKLADCRSTDPSKSELYVVEGDSAGGSAKSGRDSMFQAILPLRGKIINVEKARIDRVLKNTEVQSIITALGTGIHDEFDISKLRYHKIVLMADADVDGQHISTLLLTLLFRFMKPLVENGHIFLAQPPLYKLKWQRSEPEFAYSDRERDGLLEAGRAAGKKINVDDGIQRYKGLGEMDAKELWETTMDPSVRVLRQVTLDDAAAADELFSILMGEDVEARRSFITRNAKDVRFLDV

> <PDB ID(s) of Target Chain>
4BAE

> <UniProt (SwissProt) Recommended Name of Target Chain>
DNA gyrase subunit B

> <UniProt (SwissProt) Entry Name of Target Chain>
GYRB_MYCSM

> <UniProt (SwissProt) Primary ID of Target Chain>
P0C559

> <UniProt (SwissProt) Secondary ID(s) of Target Chain>
P48355,Q59555

> <UniProt (SwissProt) Alternative ID(s) of Target Chain>


> <UniProt (TrEMBL) Submitted Name of Target Chain>


> <UniProt (TrEMBL) Entry Name of Target Chain>


> <UniProt (TrEMBL) Primary ID of Target Chain>


> <UniProt (TrEMBL) Secondary ID(s) of Target Chain>


> <UniProt (TrEMBL) Alternative ID(s) of Target Chain>


$$$$

  SciTegic12211709092D

 26 28  0  0  0  0            999 V2000
   10.1998  -11.1426    0.0000 O   0  0
    9.7871  -10.4335    0.0000 C   0  0
    8.9699  -10.4335    0.0000 C   0  0
    8.4856   -9.7703    0.0000 C   0  0
    7.7084  -10.0249    0.0000 C   0  0
    7.0452   -9.5407    0.0000 Cl  0  0
    7.7084  -10.8421    0.0000 C   0  0
    7.0452  -11.3264    0.0000 Cl  0  0
    8.4856  -11.0968    0.0000 N   0  0
   10.1998   -9.7244    0.0000 N   0  0
   11.0170   -9.7244    0.0000 C   0  0
   11.5013  -10.3877    0.0000 N   0  0
   12.2785  -10.1330    0.0000 C   0  0
   12.9917  -10.5416    0.0000 C   0  0
   13.7008  -10.1330    0.0000 C   0  0
   13.7008   -9.3117    0.0000 C   0  0
   14.4099   -8.9031    0.0000 N   0  0
   15.1190   -9.3117    0.0000 C   0  0
   15.1190  -10.1330    0.0000 C   0  0
   15.8281  -10.5416    0.0000 C   0  0
   16.5413  -10.1330    0.0000 O   0  0
   15.8281  -11.3629    0.0000 O   0  0
   15.8281   -8.9031    0.0000 O   0  0
   12.9917   -8.9031    0.0000 C   0  0
   12.2785   -9.3117    0.0000 C   0  0
   11.5013   -9.0612    0.0000 S   0  0
  1  2  2  0
  2  3  1  0
  3  4  2  0
  4  5  1  0
  5  6  1  0
  5  7  2  0
  7  8  1  0
  7  9  1  0
  3  9  1  0
  2 10  1  0
 10 11  1  0
 11 12  2  0
 12 13  1  0
 13 14  2  0
 14 15  1  0
 15 16  2  0
 16 17  1  0
 17 18  1  0
 18 19  1  0
 19 20  1  0
 20 21  1  0
 20 22  2  0
 18 23  2  0
 16 24  1  0
 24 25  2  0
 13 25  1  0
 25 26  1  0
 11 26  1  0
M  END
> <From> 
www.bindingDB.org

> <BindingDB Reactant_set_id>
50524139

> <Ligand InChI>
InChI=1S/C15H10Cl2N4O4S/c16-7-4-9(19-13(7)17)14(25)21-15-20-8-2-1-6(3-10(8)26-15)18-11(22)5-12(23)24/h1-4,19H,5H2,(H,18,22)(H,23,24)(H,20,21,25)

> <Ligand InChI Key>
MEQWWRWUGFYEES-UHFFFAOYSA-N

> <BindingDB MonomerID>
50198323

> <BindingDB Ligand Name>
CHEMBL3917118

> <Target Name Assigned by Curator or DataSource>
DNA gyrase

> <Target Source Organism According to Curator or DataSource>
Staphylococcus aureus

> <Ki (nM)>


> <IC50 (nM)>
 8500

> <Kd (nM)>


> <EC50 (nM)>


> <kon (M-1-s-1)>


> <koff (s-1)>


> <pH>


> <Temp C>


> <Curation/DataSource>
ChEMBL

> <Article DOI>
10.1021/acs.jmedchem.6b00864

> <PMID>
27541007

> <PubChem AID>


> <Patent Number>


> <Authors>
Gjorgjieva, M; Tomaic, T; Barancokova, M; Katsamakas, S; Ila, J; Tammela, P; Peterlin Maic, L; Kikelj, D

> <Institution>
University of Ljubljana

> <Link to Ligand in BindingDB>
http://www.bindingdb.org/bind/chemsearch/marvin/MolStructure.jsp?monomerid=50198323

> <Link to Ligand-Target Pair in BindingDB>
http://www.bindingdb.org/jsp/dbsearch/PrimarySearch_ki.jsp?energyterm=kJ/mole&tag=pol&polymerid=2626&target=DNA+gyrase&column=ki&startPg=0&Increment=50&submit=Search

> <Link to Ligand-Target Pair in BindingDB>
http://www.bindingdb.org/jsp/dbsearch/PrimarySearch_ki.jsp?energyterm=kJ/mole&tag=r21&monomerid=50198323&enzyme=DNA+gyrase&column=ki&startPg=0&Increment=50&submit=Search

> <Ligand HET ID in PDB>


> <PDB ID(s) for Ligand-Target Complex>


> <PubChem CID>
134142801

> <PubChem SID>
375978207

> <ChEBI ID of Ligand>


> <ChEMBL ID of Ligand>


> <DrugBank ID of Ligand>


> <IUPHAR_GRAC ID of Ligand>


> <KEGG ID of Ligand>


> <ZINC ID of Ligand>


> <Number of Protein Chains in Target (>1 implies a multichain complex)>
1

> <BindingDB Target Chain Sequence>
MVTALSDVNNTDNYGAGQIQVLEGLEAVRKRPGMYIGSTSERGLHHLVWEIVDNSIDEALAGYANQIEVVIEKDNWIKVTDNGRGIPVDIQEKMGRPAVEVILTVLHAGGKFGGGGYKVSGGLHGVGSSVVNALSQDLEVYVHRNETIYHQAYKKGVPQFDLKEVGTTDKTGTVIRFKADGEIFTETTVYNYETLQQRIRELAFLNKGIQITLRDERDEENVREDSYHYEGGIKSYVELLNENKEPIHDEPIYIHQSKDDIEVEIAIQYNSGYATNLLTYANNIHTYEGGTHEDGFKRALTRVLNSYGLSSKIMKEEKDRLSGEDTREGMTAIISIKHGDPQFEGQTKTKLGNSEVRQVVDKLFSEHFERFLYENPQVARTVVEKGIMAARARVAAKKAREVTRRKSALDVASLPGKLADCSSKSPEECEIFLVEGDSAGGSTKSGRDSRTQAILPLRGKILNVEKARLDRILNNNEIRQMITAFGTGIGGDFDLAKARYHKIVIMTDADVDGAHIRTLLLTFFYRFMRPLIEAGYVYIAQPPLYKLTQGKQKYYVYNDRELDKLKSELNPTPKWSIARYKGLGEMNADQLWETTMNPEHRALLQVKLEDAIEADQTFEMLMGDVVENRRQFIEDNAVYANLDF

> <PDB ID(s) of Target Chain>


> <UniProt (SwissProt) Recommended Name of Target Chain>
DNA gyrase subunit B

> <UniProt (SwissProt) Entry Name of Target Chain>
GYRB_STAAU

> <UniProt (SwissProt) Primary ID of Target Chain>
P0A0K8

> <UniProt (SwissProt) Secondary ID(s) of Target Chain>
P20832

> <UniProt (SwissProt) Alternative ID(s) of Target Chain>


> <UniProt (TrEMBL) Submitted Name of Target Chain>


> <UniProt (TrEMBL) Entry Name of Target Chain>


> <UniProt (TrEMBL) Primary ID of Target Chain>


> <UniProt (TrEMBL) Secondary ID(s) of Target Chain>


> <UniProt (TrEMBL) Alternative ID(s) of Target Chain>


$$$$

  SciTegic12221712542D

 28 32  0  0  0  0            999 V2000
   11.7644   -8.5833    0.0000 C   0  0
   11.0524   -8.1829    0.0000 O   0  0
   12.5444   -7.3547    0.0000 N   0  0
   12.4663   -8.1665    0.0000 C   0  0
   13.2193   -8.4879    0.0000 C   0  0
   13.7565   -7.8761    0.0000 C   0  0
   14.5736   -7.8660    0.0000 C   0  0
   14.9740   -7.1540    0.0000 C   0  0
   14.5572   -6.4521    0.0000 C   0  0
   13.7401   -6.4622    0.0000 C   0  0
   13.3398   -7.1742    0.0000 C   0  0
   11.7745   -9.4004    0.0000 N   0  0
   11.0726   -9.8171    0.0000 C   0  0
   11.0786  -10.6343    0.0000 C   0  0
   11.7947  -11.0346    0.0000 N   0  0
   12.4966  -10.6179    0.0000 C   0  0
   12.4865   -9.8007    0.0000 C   0  0
   11.8209  -13.4859    0.0000 N   0  0
   12.5228  -13.0692    0.0000 C   0  0
   12.5168  -12.2521    0.0000 C   0  0
   11.8007  -11.8517    0.0000 C   0  0
   11.0988  -12.2685    0.0000 C   0  0
   10.3868  -11.8681    0.0000 C   0  0
    9.6849  -12.2849    0.0000 C   0  0
    9.6909  -13.1020    0.0000 C   0  0
   10.4070  -13.5023    0.0000 C   0  0
   11.1089  -13.0856    0.0000 C   0  0
    8.9931  -13.5187    0.0000 Cl  0  0
  1  2  2  0
  3  4  1  0
  4  5  2  0
  5  6  1  0
  6  7  1  0
  7  8  2  0
  8  9  1  0
  9 10  2  0
 10 11  1  0
  3 11  1  0
  6 11  2  0
  1  4  1  0
 12 13  1  0
 13 14  1  0
 14 15  1  0
 15 16  1  0
 16 17  1  0
 12 17  1  0
 18 19  2  0
 19 20  1  0
 20 21  2  0
 21 22  1  0
 22 23  2  0
 23 24  1  0
 24 25  2  0
 25 26  1  0
 26 27  2  0
 18 27  1  0
 22 27  1  0
 25 28  1  0
 15 21  1  0
  1 12  1  0
M  END
> <From> 
www.bindingDB.org

> <BindingDB Reactant_set_id>
50528091

> <Ligand InChI>
InChI=1S/C22H19ClN4O/c23-16-5-6-17-19(14-16)24-8-7-21(17)26-9-11-27(12-10-26)22(28)20-13-15-3-1-2-4-18(15)25-20/h1-8,13-14,25H,9-12H2

> <Ligand InChI Key>
YZDPFMBYLOYEMV-UHFFFAOYSA-N

> <BindingDB MonomerID>
50202237

> <BindingDB Ligand Name>
CHEMBL3957660

> <Target Name Assigned by Curator or DataSource>
DNA gyrase subunit B

> <Target Source Organism According to Curator or DataSource>


> <Ki (nM)>


> <IC50 (nM)>
 8530

> <Kd (nM)>


> <EC50 (nM)>


> <kon (M-1-s-1)>


> <koff (s-1)>


> <pH>


> <Temp C>


> <Curation/DataSource>
ChEMBL

> <Article DOI>
10.1016/j.ejmech.2016.06.042

> <PMID>
27371925

> <PubChem AID>


> <Patent Number>


> <Authors>
Jeankumar, VU; Reshma, RS; Vats, R; Janupally, R; Saxena, S; Yogeeswari, P; Sriram, D

> <Institution>
Birla Institute of Technology&amp; Science-Pilani

> <Link to Ligand in BindingDB>
http://www.bindingdb.org/bind/chemsearch/marvin/MolStructure.jsp?monomerid=50202237

> <Link to Ligand-Target Pair in BindingDB>
http://www.bindingdb.org/jsp/dbsearch/PrimarySearch_ki.jsp?energyterm=kJ/mole&tag=pol&polymerid=50006452&target=DNA+gyrase+subunit+B&column=ki&startPg=0&Increment=50&submit=Search

> <Link to Ligand-Target Pair in BindingDB>
http://www.bindingdb.org/jsp/dbsearch/PrimarySearch_ki.jsp?energyterm=kJ/mole&tag=r21&monomerid=50202237&enzyme=DNA+gyrase+subunit+B&column=ki&startPg=0&Increment=50&submit=Search

> <Ligand HET ID in PDB>


> <PDB ID(s) for Ligand-Target Complex>


> <PubChem CID>
60405093

> <PubChem SID>
375979601

> <ChEBI ID of Ligand>


> <ChEMBL ID of Ligand>


> <DrugBank ID of Ligand>


> <IUPHAR_GRAC ID of Ligand>


> <KEGG ID of Ligand>


> <ZINC ID of Ligand>


> <Number of Protein Chains in Target (>1 implies a multichain complex)>
1

> <BindingDB Target Chain Sequence>
MAAQKNNAPKEYGADSITILEGLEAVRKRPGMYIGSTGERGLHHLIWEVVDNAVDEAMAGFATRVDVKIHADGSVEVRDDGRGIPVEMHATGMPTIDVVMTQLHAGGKFDGETYAVSGGLHGVGVSVVNALSTRLEATVLRDGYEWFQYYDRSVPGKLKQGGETKETGTTIRFWADPEIFETTDYNFETVARRLQEMAFLNKGLTIELTDERVTAEEVVDDVVKDTAEAPKTADEKAAEATGPSKVKHRVFHYPGGLVDYVKHINRTKTPIQQSIIDFDGKGPGHEVEIAMQWNAGYSESVHTFANTINTHEGGTHEEGFRAALTSVVNRYAKDKKLLKDKDPNLTGDDIREGLAAVISVKVAEPQFEGQTKTKLGNTEVKSFVQKICNEQLQHWFEANPAEAKTVVNKAVSSAQARIAARKARELVRRKSATDIGGLPGKLADCRSTDPSKSELYVVEGDSAGGSAKSGRDSMFQAILPLRGKIINVEKARIDRVLKNTEVQSIITALGTGIHDEFDISKLRYHKIVLMADADVDGQHISTLLLTLLFRFMKPLVENGHIFLAQPPLYKLKWQRSEPEFAYSDRERDGLLEAGRAAGKKINVDDGIQRYKGLGEMDAKELWETTMDPSVRVLRQVTLDDAAAADELFSILMGEDVEARRSFITRNAKDVRFLDV

> <PDB ID(s) of Target Chain>
4BAE

> <UniProt (SwissProt) Recommended Name of Target Chain>
DNA gyrase subunit B

> <UniProt (SwissProt) Entry Name of Target Chain>
GYRB_MYCSM

> <UniProt (SwissProt) Primary ID of Target Chain>
P0C559

> <UniProt (SwissProt) Secondary ID(s) of Target Chain>
P48355,Q59555

> <UniProt (SwissProt) Alternative ID(s) of Target Chain>


> <UniProt (TrEMBL) Submitted Name of Target Chain>


> <UniProt (TrEMBL) Entry Name of Target Chain>


> <UniProt (TrEMBL) Primary ID of Target Chain>


> <UniProt (TrEMBL) Secondary ID(s) of Target Chain>


> <UniProt (TrEMBL) Alternative ID(s) of Target Chain>


$$$$

  Mrv0541 04171609262D          

 30 33  0  0  0  0            999 V2000
   -1.4361    0.4117    0.0000 C   0  0  0  0  0  0  0  0  0  0  0  0
   -1.4361   -0.4117    0.0000 C   0  0  0  0  0  0  0  0  0  0  0  0
   -0.7130   -0.8235    0.0000 C   0  0  0  0  0  0  0  0  0  0  0  0
   -0.7130    0.8235    0.0000 C   0  0  0  0  0  0  0  0  0  0  0  0
    0.0000    0.4117    0.0000 C   0  0  0  0  0  0  0  0  0  0  0  0
    0.0000   -0.4117    0.0000 C   0  0  0  0  0  0  0  0  0  0  0  0
    0.7130   -0.8235    0.0000 N   0  0  0  0  0  0  0  0  0  0  0  0
    1.4261   -0.4117    0.0000 C   0  0  0  0  0  0  0  0  0  0  0  0
    1.4261    0.4117    0.0000 C   0  0  0  0  0  0  0  0  0  0  0  0
    0.7130    0.8235    0.0000 C   0  0  0  0  0  0  0  0  0  0  0  0
    0.7130    1.6489    0.0000 N   0  0  0  0  0  0  0  0  0  0  0  0
   -0.0008    2.0627    0.0000 C   0  0  0  0  0  0  0  0  0  0  0  0
    0.0006    2.8877    0.0000 C   0  0  0  0  0  0  0  0  0  0  0  0
    0.7158    3.2990    0.0000 C   0  0  0  0  0  0  0  0  0  0  0  0
    1.4296    2.8853    0.0000 C   0  0  0  0  0  0  0  0  0  0  0  0
    1.4282    2.0603    0.0000 C   0  0  0  0  0  0  0  0  0  0  0  0
    0.7188    4.1245    0.0000 N   0  0  0  0  0  0  0  0  0  0  0  0
    1.4350    4.5350    0.0000 C   0  0  0  0  0  0  0  0  0  0  0  0
    2.0054    4.2031    0.0000 S   0  0  0  0  0  0  0  0  0  0  0  0
    1.4380    5.3604    0.0000 N   0  0  0  0  0  0  0  0  0  0  0  0
    2.1541    5.7709    0.0000 C   0  0  0  0  0  0  0  0  0  0  0  0
    2.1584    6.5960    0.0000 C   0  0  0  0  0  0  0  0  0  0  0  0
    2.8750    7.0048    0.0000 C   0  0  0  0  0  0  0  0  0  0  0  0
    3.5873    6.5887    0.0000 C   0  0  0  0  0  0  0  0  0  0  0  0
    3.5831    5.7637    0.0000 C   0  0  0  0  0  0  0  0  0  0  0  0
    2.8666    5.3548    0.0000 C   0  0  0  0  0  0  0  0  0  0  0  0
    1.9977   -0.7417    0.0000 C   0  0  0  0  0  0  0  0  0  0  0  0
    4.1606    6.9157    0.0000 F   0  0  0  0  0  0  0  0  0  0  0  0
   -2.1500    0.8260    0.0000 O   0  0  0  0  0  0  0  0  0  0  0  0
   -2.1490    1.4860    0.0000 C   0  0  0  0  0  0  0  0  0  0  0  0
  1  2  4  0  0  0  0
  2  3  4  0  0  0  0
  3  6  4  0  0  0  0
  5  4  4  0  0  0  0
  4  1  4  0  0  0  0
  5  6  4  0  0  0  0
  6  7  4  0  0  0  0
  7  8  4  0  0  0  0
  8  9  4  0  0  0  0
  9 10  4  0  0  0  0
 10  5  4  0  0  0  0
 11 12  1  0  0  0  0
 11 16  1  0  0  0  0
 12 13  1  0  0  0  0
 13 14  1  0  0  0  0
 14 15  1  0  0  0  0
 15 16  1  0  0  0  0
 10 11  1  0  0  0  0
 14 17  1  0  0  0  0
 17 18  1  0  0  0  0
 18 19  2  0  0  0  0
 18 20  1  0  0  0  0
 20 21  1  0  0  0  0
 21 22  4  0  0  0  0
 22 23  4  0  0  0  0
 23 24  4  0  0  0  0
 24 25  4  0  0  0  0
 25 26  4  0  0  0  0
 26 21  4  0  0  0  0
  8 27  1  0  0  0  0
 24 28  1  0  0  0  0
  1 29  1  0  0  0  0
 29 30  1  0  0  0  0
M  END
> <From> 
www.bindingDB.org

> <BindingDB Reactant_set_id>
50303836

> <Ligand InChI>
InChI=1S/C23H25FN4OS/c1-15-13-22(20-14-19(29-2)7-8-21(20)25-15)28-11-9-18(10-12-28)27-23(30)26-17-5-3-16(24)4-6-17/h3-8,13-14,18H,9-12H2,1-2H3,(H2,26,27,30)

> <Ligand InChI Key>
WWDPJJGYDBKGDS-UHFFFAOYSA-N

> <BindingDB MonomerID>
50067152

> <BindingDB Ligand Name>
CHEMBL3403273

> <Target Name Assigned by Curator or DataSource>
DNA gyrase subunit B

> <Target Source Organism According to Curator or DataSource>


> <Ki (nM)>


> <IC50 (nM)>
 8700

> <Kd (nM)>


> <EC50 (nM)>


> <kon (M-1-s-1)>


> <koff (s-1)>


> <pH>


> <Temp C>


> <Curation/DataSource>
ChEMBL

> <Article DOI>
10.1016/j.bmc.2015.03.004

> <PMID>
25801151

> <PubChem AID>


> <Patent Number>


> <Authors>
Medapi, B; Renuka, J; Saxena, S; Sridevi, JP; Medishetti, R; Kulkarni, P; Yogeeswari, P; Sriram, D

> <Institution>
Birla Institute of Technology&amp; Science-Pilani

> <Link to Ligand in BindingDB>
http://www.bindingdb.org/bind/chemsearch/marvin/MolStructure.jsp?monomerid=50067152

> <Link to Ligand-Target Pair in BindingDB>
http://www.bindingdb.org/jsp/dbsearch/PrimarySearch_ki.jsp?energyterm=kJ/mole&tag=pol&polymerid=50006452&target=DNA+gyrase+subunit+B&column=ki&startPg=0&Increment=50&submit=Search

> <Link to Ligand-Target Pair in BindingDB>
http://www.bindingdb.org/jsp/dbsearch/PrimarySearch_ki.jsp?energyterm=kJ/mole&tag=r21&monomerid=50067152&enzyme=DNA+gyrase+subunit+B&column=ki&startPg=0&Increment=50&submit=Search

> <Ligand HET ID in PDB>


> <PDB ID(s) for Ligand-Target Complex>


> <PubChem CID>
118729689

> <PubChem SID>
313071783

> <ChEBI ID of Ligand>


> <ChEMBL ID of Ligand>


> <DrugBank ID of Ligand>


> <IUPHAR_GRAC ID of Ligand>


> <KEGG ID of Ligand>


> <ZINC ID of Ligand>


> <Number of Protein Chains in Target (>1 implies a multichain complex)>
1

> <BindingDB Target Chain Sequence>
MAAQKNNAPKEYGADSITILEGLEAVRKRPGMYIGSTGERGLHHLIWEVVDNAVDEAMAGFATRVDVKIHADGSVEVRDDGRGIPVEMHATGMPTIDVVMTQLHAGGKFDGETYAVSGGLHGVGVSVVNALSTRLEATVLRDGYEWFQYYDRSVPGKLKQGGETKETGTTIRFWADPEIFETTDYNFETVARRLQEMAFLNKGLTIELTDERVTAEEVVDDVVKDTAEAPKTADEKAAEATGPSKVKHRVFHYPGGLVDYVKHINRTKTPIQQSIIDFDGKGPGHEVEIAMQWNAGYSESVHTFANTINTHEGGTHEEGFRAALTSVVNRYAKDKKLLKDKDPNLTGDDIREGLAAVISVKVAEPQFEGQTKTKLGNTEVKSFVQKICNEQLQHWFEANPAEAKTVVNKAVSSAQARIAARKARELVRRKSATDIGGLPGKLADCRSTDPSKSELYVVEGDSAGGSAKSGRDSMFQAILPLRGKIINVEKARIDRVLKNTEVQSIITALGTGIHDEFDISKLRYHKIVLMADADVDGQHISTLLLTLLFRFMKPLVENGHIFLAQPPLYKLKWQRSEPEFAYSDRERDGLLEAGRAAGKKINVDDGIQRYKGLGEMDAKELWETTMDPSVRVLRQVTLDDAAAADELFSILMGEDVEARRSFITRNAKDVRFLDV

> <PDB ID(s) of Target Chain>
4BAE

> <UniProt (SwissProt) Recommended Name of Target Chain>
DNA gyrase subunit B

> <UniProt (SwissProt) Entry Name of Target Chain>
GYRB_MYCSM

> <UniProt (SwissProt) Primary ID of Target Chain>
P0C559

> <UniProt (SwissProt) Secondary ID(s) of Target Chain>
P48355,Q59555

> <UniProt (SwissProt) Alternative ID(s) of Target Chain>


> <UniProt (TrEMBL) Submitted Name of Target Chain>


> <UniProt (TrEMBL) Entry Name of Target Chain>


> <UniProt (TrEMBL) Primary ID of Target Chain>


> <UniProt (TrEMBL) Secondary ID(s) of Target Chain>


> <UniProt (TrEMBL) Alternative ID(s) of Target Chain>


$$$$

  SciTegic04201612532D

 38 41  0  0  0  0            999 V2000
   -1.2964    1.4973    0.0000 N   0  0
   -2.6111    0.7486    0.0000 C   0  0
   -2.6111   -0.7486    0.0000 C   0  0
   -1.2964   -1.4973    0.0000 C   0  0
    0.0000   -0.7486    0.0000 C   0  0
    1.2964   -1.4973    0.0000 C   0  0
    2.5929   -0.7486    0.0000 C   0  0
    2.5929    0.7486    0.0000 C   0  0
    1.2964    1.4973    0.0000 C   0  0
    0.0000    0.7486    0.0000 C   0  0
   -3.9122   -1.4966    0.0000 C   0  0
   -3.9138   -2.4966    0.0000 O   0  0
   -5.2109   -0.7445    0.0000 O   0  0
   -1.2907   -2.9981    0.0000 N   0  0
   -2.5870   -3.7544    0.0000 C   0  0
   -2.5835   -5.2544    0.0000 C   0  0
   -3.8807   -6.0076    0.0000 C   0  0
   -5.1815   -5.2608    0.0000 C   0  0
   -5.1852   -3.7608    0.0000 C   0  0
   -3.8880   -3.0076    0.0000 C   0  0
   -6.4810   -6.0117    0.0000 N   0  0
   -7.7815   -5.2626    0.0000 C   0  0
   -9.0810   -6.0135    0.0000 C   0  0
  -10.3815   -5.2644    0.0000 C   0  0
  -14.2755   -7.5217    0.0000 N   0  0
  -14.2791   -6.0217    0.0000 C   0  0
  -12.9819   -5.2686    0.0000 C   0  0
  -11.6810   -6.0154    0.0000 N   0  0
  -11.6774   -7.5154    0.0000 C   0  0
  -12.9746   -8.2686    0.0000 C   0  0
   -6.5121   -1.4924    0.0000 C   0  0
   -7.5506   -0.8910    0.0000 C   0  0
  -15.5719   -8.2779    0.0000 C   0  0
  -15.5672   -9.4779    0.0000 C   0  0
    3.8926   -1.4991    0.0000 C   0  0
    3.8934   -2.6991    0.0000 F   0  0
    4.9317   -0.8987    0.0000 F   0  0
    4.9322   -2.0986    0.0000 F   0  0
  1  2  2  0
  2  3  1  0
  3  4  2  0
  4  5  1  0
  5  6  2  0
  6  7  1  0
  7  8  2  0
  8  9  1  0
  9 10  2  0
  1 10  1  0
  5 10  1  0
 11 12  2  0
 11 13  1  0
  3 11  1  0
 15 16  1  0
 16 17  2  0
 17 18  1  0
 18 19  2  0
 19 20  1  0
 15 20  2  0
 22 23  1  0
 23 24  1  0
 21 22  1  0
 25 26  1  0
 26 27  1  0
 27 28  1  0
 28 29  1  0
 29 30  1  0
 25 30  1  0
 24 28  1  0
 18 21  1  0
 14 15  1  0
  4 14  1  0
 31 32  1  0
 13 31  1  0
 25 33  1  0
 33 34  1  0
 35 36  1  0
 35 37  1  0
 35 38  1  0
  7 35  1  0
M  END
> <From> 
www.bindingDB.org

> <BindingDB Reactant_set_id>
50426779

> <Ligand InChI>
InChI=1S/C28H34F3N5O2/c1-3-35-14-16-36(17-15-35)13-5-12-32-21-7-9-22(10-8-21)34-26-23-18-20(28(29,30)31)6-11-25(23)33-19-24(26)27(37)38-4-2/h6-11,18-19,32H,3-5,12-17H2,1-2H3,(H,33,34)

> <Ligand InChI Key>
JXMKJNIOAIGALY-UHFFFAOYSA-N

> <BindingDB MonomerID>
50126800

> <BindingDB Ligand Name>
CHEMBL3628439

> <Target Name Assigned by Curator or DataSource>
DNA gyrase subunit B

> <Target Source Organism According to Curator or DataSource>


> <Ki (nM)>


> <IC50 (nM)>
 8820

> <Kd (nM)>


> <EC50 (nM)>


> <kon (M-1-s-1)>


> <koff (s-1)>


> <pH>


> <Temp C>


> <Curation/DataSource>
ChEMBL

> <Article DOI>
10.1016/j.ejmech.2015.06.032

> <PMID>
26318054

> <PubChem AID>


> <Patent Number>


> <Authors>
Medapi, B; Suryadevara, P; Renuka, J; Sridevi, JP; Yogeeswari, P; Sriram, D

> <Institution>
Birla Institute of Technology&amp;Science

> <Link to Ligand in BindingDB>
http://www.bindingdb.org/bind/chemsearch/marvin/MolStructure.jsp?monomerid=50126800

> <Link to Ligand-Target Pair in BindingDB>
http://www.bindingdb.org/jsp/dbsearch/PrimarySearch_ki.jsp?energyterm=kJ/mole&tag=pol&polymerid=50006452&target=DNA+gyrase+subunit+B&column=ki&startPg=0&Increment=50&submit=Search

> <Link to Ligand-Target Pair in BindingDB>
http://www.bindingdb.org/jsp/dbsearch/PrimarySearch_ki.jsp?energyterm=kJ/mole&tag=r21&monomerid=50126800&enzyme=DNA+gyrase+subunit+B&column=ki&startPg=0&Increment=50&submit=Search

> <Ligand HET ID in PDB>


> <PDB ID(s) for Ligand-Target Complex>


> <PubChem CID>
122193452

> <PubChem SID>
104018868

> <ChEBI ID of Ligand>


> <ChEMBL ID of Ligand>


> <DrugBank ID of Ligand>


> <IUPHAR_GRAC ID of Ligand>


> <KEGG ID of Ligand>


> <ZINC ID of Ligand>
ZINC13494191

> <Number of Protein Chains in Target (>1 implies a multichain complex)>
1

> <BindingDB Target Chain Sequence>
MAAQKNNAPKEYGADSITILEGLEAVRKRPGMYIGSTGERGLHHLIWEVVDNAVDEAMAGFATRVDVKIHADGSVEVRDDGRGIPVEMHATGMPTIDVVMTQLHAGGKFDGETYAVSGGLHGVGVSVVNALSTRLEATVLRDGYEWFQYYDRSVPGKLKQGGETKETGTTIRFWADPEIFETTDYNFETVARRLQEMAFLNKGLTIELTDERVTAEEVVDDVVKDTAEAPKTADEKAAEATGPSKVKHRVFHYPGGLVDYVKHINRTKTPIQQSIIDFDGKGPGHEVEIAMQWNAGYSESVHTFANTINTHEGGTHEEGFRAALTSVVNRYAKDKKLLKDKDPNLTGDDIREGLAAVISVKVAEPQFEGQTKTKLGNTEVKSFVQKICNEQLQHWFEANPAEAKTVVNKAVSSAQARIAARKARELVRRKSATDIGGLPGKLADCRSTDPSKSELYVVEGDSAGGSAKSGRDSMFQAILPLRGKIINVEKARIDRVLKNTEVQSIITALGTGIHDEFDISKLRYHKIVLMADADVDGQHISTLLLTLLFRFMKPLVENGHIFLAQPPLYKLKWQRSEPEFAYSDRERDGLLEAGRAAGKKINVDDGIQRYKGLGEMDAKELWETTMDPSVRVLRQVTLDDAAAADELFSILMGEDVEARRSFITRNAKDVRFLDV

> <PDB ID(s) of Target Chain>
4BAE

> <UniProt (SwissProt) Recommended Name of Target Chain>
DNA gyrase subunit B

> <UniProt (SwissProt) Entry Name of Target Chain>
GYRB_MYCSM

> <UniProt (SwissProt) Primary ID of Target Chain>
P0C559

> <UniProt (SwissProt) Secondary ID(s) of Target Chain>
P48355,Q59555

> <UniProt (SwissProt) Alternative ID(s) of Target Chain>


> <UniProt (TrEMBL) Submitted Name of Target Chain>


> <UniProt (TrEMBL) Entry Name of Target Chain>


> <UniProt (TrEMBL) Primary ID of Target Chain>


> <UniProt (TrEMBL) Secondary ID(s) of Target Chain>


> <UniProt (TrEMBL) Alternative ID(s) of Target Chain>


$$$$

  Mrv0541 04171609262D          

 26 28  0  0  0  0            999 V2000
    0.7145   -0.4125    0.0000 C   0  0  0  0  0  0  0  0  0  0  0  0
    0.7145    0.4125    0.0000 C   0  0  0  0  0  0  0  0  0  0  0  0
    0.0000    0.8250    0.0000 C   0  0  0  0  0  0  0  0  0  0  0  0
   -0.7145    0.4125    0.0000 C   0  0  0  0  0  0  0  0  0  0  0  0
   -0.7145   -0.4125    0.0000 C   0  0  0  0  0  0  0  0  0  0  0  0
    0.0000   -0.8250    0.0000 C   0  0  0  0  0  0  0  0  0  0  0  0
   -1.4293   -0.8252    0.0000 C   0  0  0  0  0  0  0  0  0  0  0  0
   -2.1731   -0.4848    0.0000 S   0  0  0  0  0  0  0  0  0  0  0  0
   -2.7242   -1.0988    0.0000 C   0  0  0  0  0  0  0  0  0  0  0  0
   -2.3106   -1.8127    0.0000 C   0  0  0  0  0  0  0  0  0  0  0  0
   -1.5039   -1.6399    0.0000 C   0  0  0  0  0  0  0  0  0  0  0  0
   -2.6430   -2.5667    0.0000 C   0  0  0  0  0  0  0  0  0  0  0  0
   -2.2534   -3.0995    0.0000 O   0  0  0  0  0  0  0  0  0  0  0  0
   -3.2991   -2.6378    0.0000 N   0  0  0  0  0  0  0  0  0  0  0  0
   -3.5437   -1.0123    0.0000 N   0  0  0  0  0  0  0  0  0  0  0  0
   -3.8796   -0.2582    0.0000 C   0  0  0  0  0  0  0  0  0  0  0  0
   -4.7005   -0.1715    0.0000 C   0  0  0  0  0  0  0  0  0  0  0  0
   -3.4916    0.2757    0.0000 O   0  0  0  0  0  0  0  0  0  0  0  0
   -5.0373    0.5816    0.0000 C   0  0  0  0  0  0  0  0  0  0  0  0
   -5.8579    0.6666    0.0000 C   0  0  0  0  0  0  0  0  0  0  0  0
   -6.3418   -0.0017    0.0000 C   0  0  0  0  0  0  0  0  0  0  0  0
   -6.0050   -0.7548    0.0000 C   0  0  0  0  0  0  0  0  0  0  0  0
   -5.1844   -0.8398    0.0000 C   0  0  0  0  0  0  0  0  0  0  0  0
   -7.1630    0.0817    0.0000 N   0  3  0  0  0  0  0  0  0  0  0  0
   -7.5494   -0.4534    0.0000 O   0  0  0  0  0  0  0  0  0  0  0  0
   -7.4335    0.6838    0.0000 O   0  5  0  0  0  0  0  0  0  0  0  0
  1  2  4  0  0  0  0
  2  3  4  0  0  0  0
  3  4  4  0  0  0  0
  4  5  4  0  0  0  0
  5  6  4  0  0  0  0
  6  1  4  0  0  0  0
  7  8  4  0  0  0  0
  8  9  4  0  0  0  0
  9 10  4  0  0  0  0
 10 11  4  0  0  0  0
 11  7  4  0  0  0  0
  5  7  1  0  0  0  0
 10 12  1  0  0  0  0
 12 13  2  0  0  0  0
 12 14  1  0  0  0  0
  9 15  1  0  0  0  0
 15 16  1  0  0  0  0
 16 17  1  0  0  0  0
 16 18  2  0  0  0  0
 17 19  4  0  0  0  0
 19 20  4  0  0  0  0
 20 21  4  0  0  0  0
 21 22  4  0  0  0  0
 22 23  4  0  0  0  0
 23 17  4  0  0  0  0
 24 25  2  0  0  0  0
 24 26  1  0  0  0  0
 21 24  1  0  0  0  0
M  CHG  2  24   1  26  -1
M  END
> <From> 
www.bindingDB.org

> <BindingDB Reactant_set_id>
50302338

> <Ligand InChI>
InChI=1S/C18H13N3O4S/c19-16(22)14-10-15(11-4-2-1-3-5-11)26-18(14)20-17(23)12-6-8-13(9-7-12)21(24)25/h1-10H,(H2,19,22)(H,20,23)

> <Ligand InChI Key>
RZRBIQOGXAIONC-UHFFFAOYSA-N

> <BindingDB MonomerID>
50066100

> <BindingDB Ligand Name>
CHEMBL3402946

> <Target Name Assigned by Curator or DataSource>
DNA gyrase subunit B

> <Target Source Organism According to Curator or DataSource>


> <Ki (nM)>


> <IC50 (nM)>
 8910

> <Kd (nM)>


> <EC50 (nM)>


> <kon (M-1-s-1)>


> <koff (s-1)>


> <pH>


> <Temp C>
25.00

> <Curation/DataSource>
ChEMBL

> <Article DOI>
10.1016/j.bmc.2015.02.032

> <PMID>
25766629

> <PubChem AID>


> <Patent Number>


> <Authors>
Saxena, S; Samala, G; Renuka, J; Sridevi, JP; Yogeeswari, P; Sriram, D

> <Institution>
Birla Institute of Technology&amp; Science-Pilani

> <Link to Ligand in BindingDB>
http://www.bindingdb.org/bind/chemsearch/marvin/MolStructure.jsp?monomerid=50066100

> <Link to Ligand-Target Pair in BindingDB>
http://www.bindingdb.org/jsp/dbsearch/PrimarySearch_ki.jsp?energyterm=kJ/mole&tag=pol&polymerid=50006452&target=DNA+gyrase+subunit+B&column=ki&startPg=0&Increment=50&submit=Search

> <Link to Ligand-Target Pair in BindingDB>
http://www.bindingdb.org/jsp/dbsearch/PrimarySearch_ki.jsp?energyterm=kJ/mole&tag=r21&monomerid=50066100&enzyme=DNA+gyrase+subunit+B&column=ki&startPg=0&Increment=50&submit=Search

> <Ligand HET ID in PDB>


> <PDB ID(s) for Ligand-Target Complex>


> <PubChem CID>
16857805

> <PubChem SID>
313071621

> <ChEBI ID of Ligand>


> <ChEMBL ID of Ligand>


> <DrugBank ID of Ligand>


> <IUPHAR_GRAC ID of Ligand>


> <KEGG ID of Ligand>


> <ZINC ID of Ligand>


> <Number of Protein Chains in Target (>1 implies a multichain complex)>
1

> <BindingDB Target Chain Sequence>
MAAQKNNAPKEYGADSITILEGLEAVRKRPGMYIGSTGERGLHHLIWEVVDNAVDEAMAGFATRVDVKIHADGSVEVRDDGRGIPVEMHATGMPTIDVVMTQLHAGGKFDGETYAVSGGLHGVGVSVVNALSTRLEATVLRDGYEWFQYYDRSVPGKLKQGGETKETGTTIRFWADPEIFETTDYNFETVARRLQEMAFLNKGLTIELTDERVTAEEVVDDVVKDTAEAPKTADEKAAEATGPSKVKHRVFHYPGGLVDYVKHINRTKTPIQQSIIDFDGKGPGHEVEIAMQWNAGYSESVHTFANTINTHEGGTHEEGFRAALTSVVNRYAKDKKLLKDKDPNLTGDDIREGLAAVISVKVAEPQFEGQTKTKLGNTEVKSFVQKICNEQLQHWFEANPAEAKTVVNKAVSSAQARIAARKARELVRRKSATDIGGLPGKLADCRSTDPSKSELYVVEGDSAGGSAKSGRDSMFQAILPLRGKIINVEKARIDRVLKNTEVQSIITALGTGIHDEFDISKLRYHKIVLMADADVDGQHISTLLLTLLFRFMKPLVENGHIFLAQPPLYKLKWQRSEPEFAYSDRERDGLLEAGRAAGKKINVDDGIQRYKGLGEMDAKELWETTMDPSVRVLRQVTLDDAAAADELFSILMGEDVEARRSFITRNAKDVRFLDV

> <PDB ID(s) of Target Chain>
4BAE

> <UniProt (SwissProt) Recommended Name of Target Chain>
DNA gyrase subunit B

> <UniProt (SwissProt) Entry Name of Target Chain>
GYRB_MYCSM

> <UniProt (SwissProt) Primary ID of Target Chain>
P0C559

> <UniProt (SwissProt) Secondary ID(s) of Target Chain>
P48355,Q59555

> <UniProt (SwissProt) Alternative ID(s) of Target Chain>


> <UniProt (TrEMBL) Submitted Name of Target Chain>


> <UniProt (TrEMBL) Entry Name of Target Chain>


> <UniProt (TrEMBL) Primary ID of Target Chain>


> <UniProt (TrEMBL) Secondary ID(s) of Target Chain>


> <UniProt (TrEMBL) Alternative ID(s) of Target Chain>


$$$$

  SciTegic02271514552D

 32 36  0  0  0  0            999 V2000
   12.3135  -10.6496    0.0000 O   0  0
   12.3997   -9.8291    0.0000 C   0  0
   11.6461   -9.4935    0.0000 C   0  0
   11.0941  -10.1066    0.0000 C   0  0
   11.5065  -10.8211    0.0000 C   0  0
   10.2691  -10.1066    0.0000 C   0  0
    9.8566  -10.8211    0.0000 C   0  0
   10.2691  -11.5356    0.0000 C   0  0
   11.0941  -11.5356    0.0000 C   0  0
   13.1142   -9.4166    0.0000 C   0  0
   13.8287   -9.8291    0.0000 O   0  0
   13.1142   -8.5916    0.0000 O   0  0
    9.0315  -10.8211    0.0000 N   0  0
    8.6190  -11.5356    0.0000 C   0  0
    7.7940  -11.5356    0.0000 C   0  0
    7.3815  -10.8211    0.0000 N   0  0
    7.7940  -10.1066    0.0000 C   0  0
    8.6190  -10.1066    0.0000 C   0  0
    6.5565  -10.8211    0.0000 C   0  0
    6.1440  -11.5356    0.0000 O   0  0
    6.1440  -10.1066    0.0000 C   0  0
    5.3190  -10.1066    0.0000 C   0  0
    4.9065   -9.3922    0.0000 C   0  0
    5.3190   -8.6777    0.0000 C   0  0
    6.1440   -8.6777    0.0000 C   0  0
    6.5565   -7.9632    0.0000 C   0  0
    7.3815   -7.9632    0.0000 C   0  0
    7.7940   -8.6777    0.0000 C   0  0
    7.3815   -9.3922    0.0000 C   0  0
    6.5565   -9.3922    0.0000 C   0  0
   13.8287   -8.1791    0.0000 C   0  0
   13.8287   -7.3541    0.0000 C   0  0
  1  2  1  0
  2  3  2  0
  3  4  1  0
  4  5  1  0
  1  5  1  0
  6  7  1  0
  7  8  2  0
  8  9  1  0
  5  9  2  0
  4  6  2  0
 10 11  2  0
 10 12  1  0
  2 10  1  0
 13 14  1  0
 14 15  1  0
 15 16  1  0
 16 17  1  0
 17 18  1  0
 13 18  1  0
 19 20  2  0
 21 22  1  0
 22 23  2  0
 23 24  1  0
 24 25  2  0
 25 26  1  0
 26 27  2  0
 27 28  1  0
 28 29  2  0
 29 30  1  0
 21 30  2  0
 25 30  1  0
 19 21  1  0
 16 19  1  0
  7 13  1  0
 31 32  1  0
 12 31  1  0
M  END
> <From> 
www.bindingDB.org

> <BindingDB Reactant_set_id>
50369949

> <Ligand InChI>
InChI=1S/C26H24N2O4/c1-2-31-26(30)24-17-19-16-20(10-11-23(19)32-24)27-12-14-28(15-13-27)25(29)22-9-5-7-18-6-3-4-8-21(18)22/h3-11,16-17H,2,12-15H2,1H3

> <Ligand InChI Key>
GUNIGGUUZYANTD-UHFFFAOYSA-N

> <BindingDB MonomerID>
50100687

> <BindingDB Ligand Name>
CHEMBL3323162

> <Target Name Assigned by Curator or DataSource>
DNA gyrase subunit B

> <Target Source Organism According to Curator or DataSource>


> <Ki (nM)>


> <IC50 (nM)>
 9080

> <Kd (nM)>


> <EC50 (nM)>


> <kon (M-1-s-1)>


> <koff (s-1)>


> <pH>


> <Temp C>


> <Curation/DataSource>
ChEMBL

> <Article DOI>
10.1016/j.bmc.2014.06.041

> <PMID>
25129171

> <PubChem AID>


> <Patent Number>


> <Authors>
Renuka, J; Reddy, KI; Srihari, K; Jeankumar, VU; Shravan, M; Sridevi, JP; Yogeeswari, P; Babu, KS; Sriram, D

> <Institution>
Institute of Technology&amp; Science-Pilani

> <Link to Ligand in BindingDB>
http://www.bindingdb.org/bind/chemsearch/marvin/MolStructure.jsp?monomerid=50100687

> <Link to Ligand-Target Pair in BindingDB>
http://www.bindingdb.org/jsp/dbsearch/PrimarySearch_ki.jsp?energyterm=kJ/mole&tag=pol&polymerid=50006452&target=DNA+gyrase+subunit+B&column=ki&startPg=0&Increment=50&submit=Search

> <Link to Ligand-Target Pair in BindingDB>
http://www.bindingdb.org/jsp/dbsearch/PrimarySearch_ki.jsp?energyterm=kJ/mole&tag=r21&monomerid=50100687&enzyme=DNA+gyrase+subunit+B&column=ki&startPg=0&Increment=50&submit=Search

> <Ligand HET ID in PDB>


> <PDB ID(s) for Ligand-Target Complex>


> <PubChem CID>
118710574

> <PubChem SID>
103997415

> <ChEBI ID of Ligand>


> <ChEMBL ID of Ligand>
CHEMBL304773

> <DrugBank ID of Ligand>


> <IUPHAR_GRAC ID of Ligand>


> <KEGG ID of Ligand>


> <ZINC ID of Ligand>
ZINC26287663

> <Number of Protein Chains in Target (>1 implies a multichain complex)>
1

> <BindingDB Target Chain Sequence>
MAAQKNNAPKEYGADSITILEGLEAVRKRPGMYIGSTGERGLHHLIWEVVDNAVDEAMAGFATRVDVKIHADGSVEVRDDGRGIPVEMHATGMPTIDVVMTQLHAGGKFDGETYAVSGGLHGVGVSVVNALSTRLEATVLRDGYEWFQYYDRSVPGKLKQGGETKETGTTIRFWADPEIFETTDYNFETVARRLQEMAFLNKGLTIELTDERVTAEEVVDDVVKDTAEAPKTADEKAAEATGPSKVKHRVFHYPGGLVDYVKHINRTKTPIQQSIIDFDGKGPGHEVEIAMQWNAGYSESVHTFANTINTHEGGTHEEGFRAALTSVVNRYAKDKKLLKDKDPNLTGDDIREGLAAVISVKVAEPQFEGQTKTKLGNTEVKSFVQKICNEQLQHWFEANPAEAKTVVNKAVSSAQARIAARKARELVRRKSATDIGGLPGKLADCRSTDPSKSELYVVEGDSAGGSAKSGRDSMFQAILPLRGKIINVEKARIDRVLKNTEVQSIITALGTGIHDEFDISKLRYHKIVLMADADVDGQHISTLLLTLLFRFMKPLVENGHIFLAQPPLYKLKWQRSEPEFAYSDRERDGLLEAGRAAGKKINVDDGIQRYKGLGEMDAKELWETTMDPSVRVLRQVTLDDAAAADELFSILMGEDVEARRSFITRNAKDVRFLDV

> <PDB ID(s) of Target Chain>
4BAE

> <UniProt (SwissProt) Recommended Name of Target Chain>
DNA gyrase subunit B

> <UniProt (SwissProt) Entry Name of Target Chain>
GYRB_MYCSM

> <UniProt (SwissProt) Primary ID of Target Chain>
P0C559

> <UniProt (SwissProt) Secondary ID(s) of Target Chain>
P48355,Q59555

> <UniProt (SwissProt) Alternative ID(s) of Target Chain>


> <UniProt (TrEMBL) Submitted Name of Target Chain>


> <UniProt (TrEMBL) Entry Name of Target Chain>


> <UniProt (TrEMBL) Primary ID of Target Chain>


> <UniProt (TrEMBL) Secondary ID(s) of Target Chain>


> <UniProt (TrEMBL) Alternative ID(s) of Target Chain>


$$$$

  SciTegic12201718302D

 27 30  0  0  0  0            999 V2000
   10.1472   -3.3892    0.0000 C   0  0
    9.4398   -3.8008    0.0000 C   0  0
   10.1437   -2.5720    0.0000 O   0  0
   10.8538   -3.7989    0.0000 N   0  0
   11.5612   -3.3873    0.0000 C   0  0
    9.4391   -4.6180    0.0000 N   0  0
    8.7359   -5.0296    0.0000 C   0  0
    8.7394   -5.8467    0.0000 C   0  0
    9.4460   -6.2523    0.0000 N   0  0
   10.1534   -5.8408    0.0000 C   0  0
   10.1499   -5.0236    0.0000 C   0  0
    9.4523   -8.7039    0.0000 N   0  0
   10.1596   -8.2923    0.0000 C   0  0
   10.1562   -7.4751    0.0000 C   0  0
    9.4495   -7.0695    0.0000 C   0  0
    8.7421   -7.4811    0.0000 C   0  0
    8.0354   -7.0755    0.0000 C   0  0
    7.3281   -7.4830    0.0000 C   0  0
    7.3274   -8.3002    0.0000 C   0  0
    8.0382   -8.7099    0.0000 C   0  0
    8.7456   -8.2983    0.0000 C   0  0
    6.6242   -8.7117    0.0000 Cl  0  0
   12.2678   -3.7963    0.0000 N   0  0
   12.9747   -3.3854    0.0000 C   0  0
   12.9724   -2.5661    0.0000 C   0  0
   12.2573   -2.1595    0.0000 C   0  0
   11.5533   -2.5728    0.0000 C   0  0
  1  2  1  0
  1  3  2  0
  1  4  1  0
  4  5  1  0
  6  7  1  0
  7  8  1  0
  8  9  1  0
  9 10  1  0
 10 11  1  0
  6 11  1  0
 12 13  2  0
 13 14  1  0
 14 15  2  0
 15 16  1  0
 16 17  2  0
 17 18  1  0
 18 19  2  0
 19 20  1  0
 20 21  2  0
 12 21  1  0
 16 21  1  0
 19 22  1  0
  9 15  1  0
  2  6  1  0
  5 23  2  0
 23 24  1  0
 24 25  2  0
 25 26  1  0
 26 27  2  0
 27  5  1  0
M  END
> <From> 
www.bindingDB.org

> <BindingDB Reactant_set_id>
50528076

> <Ligand InChI>
InChI=1S/C20H20ClN5O/c21-15-4-5-16-17(13-15)22-8-6-18(16)26-11-9-25(10-12-26)14-20(27)24-19-3-1-2-7-23-19/h1-8,13H,9-12,14H2,(H,23,24,27)

> <Ligand InChI Key>
FUDXEEMUHPCACI-UHFFFAOYSA-N

> <BindingDB MonomerID>
50202207

> <BindingDB Ligand Name>
CHEMBL3895213

> <Target Name Assigned by Curator or DataSource>
DNA gyrase subunit B

> <Target Source Organism According to Curator or DataSource>


> <Ki (nM)>


> <IC50 (nM)>
 9100

> <Kd (nM)>


> <EC50 (nM)>


> <kon (M-1-s-1)>


> <koff (s-1)>


> <pH>


> <Temp C>


> <Curation/DataSource>
ChEMBL

> <Article DOI>
10.1016/j.ejmech.2016.06.042

> <PMID>
27371925

> <PubChem AID>


> <Patent Number>


> <Authors>
Jeankumar, VU; Reshma, RS; Vats, R; Janupally, R; Saxena, S; Yogeeswari, P; Sriram, D

> <Institution>
Birla Institute of Technology&amp; Science-Pilani

> <Link to Ligand in BindingDB>
http://www.bindingdb.org/bind/chemsearch/marvin/MolStructure.jsp?monomerid=50202207

> <Link to Ligand-Target Pair in BindingDB>
http://www.bindingdb.org/jsp/dbsearch/PrimarySearch_ki.jsp?energyterm=kJ/mole&tag=pol&polymerid=50006452&target=DNA+gyrase+subunit+B&column=ki&startPg=0&Increment=50&submit=Search

> <Link to Ligand-Target Pair in BindingDB>
http://www.bindingdb.org/jsp/dbsearch/PrimarySearch_ki.jsp?energyterm=kJ/mole&tag=r21&monomerid=50202207&enzyme=DNA+gyrase+subunit+B&column=ki&startPg=0&Increment=50&submit=Search

> <Ligand HET ID in PDB>


> <PDB ID(s) for Ligand-Target Complex>


> <PubChem CID>
134136418

> <PubChem SID>
375979588

> <ChEBI ID of Ligand>


> <ChEMBL ID of Ligand>


> <DrugBank ID of Ligand>


> <IUPHAR_GRAC ID of Ligand>


> <KEGG ID of Ligand>


> <ZINC ID of Ligand>


> <Number of Protein Chains in Target (>1 implies a multichain complex)>
1

> <BindingDB Target Chain Sequence>
MAAQKNNAPKEYGADSITILEGLEAVRKRPGMYIGSTGERGLHHLIWEVVDNAVDEAMAGFATRVDVKIHADGSVEVRDDGRGIPVEMHATGMPTIDVVMTQLHAGGKFDGETYAVSGGLHGVGVSVVNALSTRLEATVLRDGYEWFQYYDRSVPGKLKQGGETKETGTTIRFWADPEIFETTDYNFETVARRLQEMAFLNKGLTIELTDERVTAEEVVDDVVKDTAEAPKTADEKAAEATGPSKVKHRVFHYPGGLVDYVKHINRTKTPIQQSIIDFDGKGPGHEVEIAMQWNAGYSESVHTFANTINTHEGGTHEEGFRAALTSVVNRYAKDKKLLKDKDPNLTGDDIREGLAAVISVKVAEPQFEGQTKTKLGNTEVKSFVQKICNEQLQHWFEANPAEAKTVVNKAVSSAQARIAARKARELVRRKSATDIGGLPGKLADCRSTDPSKSELYVVEGDSAGGSAKSGRDSMFQAILPLRGKIINVEKARIDRVLKNTEVQSIITALGTGIHDEFDISKLRYHKIVLMADADVDGQHISTLLLTLLFRFMKPLVENGHIFLAQPPLYKLKWQRSEPEFAYSDRERDGLLEAGRAAGKKINVDDGIQRYKGLGEMDAKELWETTMDPSVRVLRQVTLDDAAAADELFSILMGEDVEARRSFITRNAKDVRFLDV

> <PDB ID(s) of Target Chain>
4BAE

> <UniProt (SwissProt) Recommended Name of Target Chain>
DNA gyrase subunit B

> <UniProt (SwissProt) Entry Name of Target Chain>
GYRB_MYCSM

> <UniProt (SwissProt) Primary ID of Target Chain>
P0C559

> <UniProt (SwissProt) Secondary ID(s) of Target Chain>
P48355,Q59555

> <UniProt (SwissProt) Alternative ID(s) of Target Chain>


> <UniProt (TrEMBL) Submitted Name of Target Chain>


> <UniProt (TrEMBL) Entry Name of Target Chain>


> <UniProt (TrEMBL) Primary ID of Target Chain>


> <UniProt (TrEMBL) Secondary ID(s) of Target Chain>


> <UniProt (TrEMBL) Alternative ID(s) of Target Chain>


$$$$

  Mrv0541 03201611132D          

 24 27  0  0  0  0            999 V2000
    6.8152  -15.9501    0.0000 N   0  0  0  0  0  0  0  0  0  0  0  0
    6.5581  -16.7348    0.0000 C   0  0  0  0  0  0  0  0  0  0  0  0
    5.7521  -16.9071    0.0000 C   0  0  0  0  0  0  0  0  0  0  0  0
    5.1991  -16.2950    0.0000 N   0  0  0  0  0  0  0  0  0  0  0  0
    5.4561  -15.5102    0.0000 C   0  0  0  0  0  0  0  0  0  0  0  0
    6.2621  -15.3379    0.0000 C   0  0  0  0  0  0  0  0  0  0  0  0
    7.6213  -15.7819    0.0000 C   0  0  0  0  0  0  0  0  0  0  0  0
    7.8783  -14.9973    0.0000 N   0  0  0  0  0  0  0  0  0  0  0  0
    8.1743  -16.3942    0.0000 S   0  0  0  0  0  0  0  0  0  0  0  0
    8.6732  -14.7821    0.0000 C   0  0  0  0  0  0  0  0  0  0  0  0
    8.8842  -13.9872    0.0000 C   0  0  0  0  0  0  0  0  0  0  0  0
    9.6833  -13.7720    0.0000 C   0  0  0  0  0  0  0  0  0  0  0  0
   10.2672  -14.3559    0.0000 C   0  0  0  0  0  0  0  0  0  0  0  0
   10.0520  -15.1507    0.0000 C   0  0  0  0  0  0  0  0  0  0  0  0
    9.2571  -15.3660    0.0000 C   0  0  0  0  0  0  0  0  0  0  0  0
    3.2373  -17.1328    0.0000 S   0  0  0  0  0  0  0  0  0  0  0  0
    4.0554  -17.2217    0.0000 N   0  0  0  0  0  0  0  0  0  0  0  0
    4.3930  -16.4673    0.0000 C   0  0  0  0  0  0  0  0  0  0  0  0
    3.7807  -15.9143    0.0000 C   0  0  0  0  0  0  0  0  0  0  0  0
    3.0649  -16.3268    0.0000 C   0  0  0  0  0  0  0  0  0  0  0  0
    2.3532  -15.9143    0.0000 C   0  0  0  0  0  0  0  0  0  0  0  0
    2.3532  -15.0893    0.0000 C   0  0  0  0  0  0  0  0  0  0  0  0
    3.0649  -14.6768    0.0000 C   0  0  0  0  0  0  0  0  0  0  0  0
    3.7807  -15.0893    0.0000 C   0  0  0  0  0  0  0  0  0  0  0  0
  1  2  1  0  0  0  0
  2  3  1  0  0  0  0
  3  4  1  0  0  0  0
  4  5  1  0  0  0  0
  5  6  1  0  0  0  0
  1  6  1  0  0  0  0
  7  8  1  0  0  0  0
  7  9  2  0  0  0  0
  1  7  1  0  0  0  0
 10 11  4  0  0  0  0
 11 12  4  0  0  0  0
 12 13  4  0  0  0  0
 13 14  4  0  0  0  0
 14 15  4  0  0  0  0
 10 15  4  0  0  0  0
  8 10  1  0  0  0  0
 16 17  4  0  0  0  0
 17 18  4  0  0  0  0
 18 19  4  0  0  0  0
 19 20  4  0  0  0  0
 16 20  4  0  0  0  0
 21 22  4  0  0  0  0
 22 23  4  0  0  0  0
 23 24  4  0  0  0  0
 19 24  4  0  0  0  0
 20 21  4  0  0  0  0
  4 18  1  0  0  0  0
M  END
> <From> 
www.bindingDB.org

> <BindingDB Reactant_set_id>
50254219

> <Ligand InChI>
InChI=1S/C18H18N4S2/c23-18(19-14-6-2-1-3-7-14)22-12-10-21(11-13-22)17-15-8-4-5-9-16(15)24-20-17/h1-9H,10-13H2,(H,19,23)

> <Ligand InChI Key>
BIWXHMGQMIWBLD-UHFFFAOYSA-N

> <BindingDB MonomerID>
50037200

> <BindingDB Ligand Name>
CHEMBL3355803

> <Target Name Assigned by Curator or DataSource>
DNA gyrase subunit B

> <Target Source Organism According to Curator or DataSource>


> <Ki (nM)>


> <IC50 (nM)>
 9140

> <Kd (nM)>


> <EC50 (nM)>


> <kon (M-1-s-1)>


> <koff (s-1)>


> <pH>


> <Temp C>


> <Curation/DataSource>
ChEMBL

> <Article DOI>
10.1016/j.bmc.2014.10.016

> <PMID>
25456076

> <PubChem AID>


> <Patent Number>


> <Authors>
Reddy, KI; Srihari, K; Renuka, J; Sree, KS; Chuppala, A; Jeankumar, VU; Sridevi, JP; Babu, KS; Yogeeswari, P; Sriram, D

> <Institution>
TBA

> <Link to Ligand in BindingDB>
http://www.bindingdb.org/bind/chemsearch/marvin/MolStructure.jsp?monomerid=50037200

> <Link to Ligand-Target Pair in BindingDB>
http://www.bindingdb.org/jsp/dbsearch/PrimarySearch_ki.jsp?energyterm=kJ/mole&tag=pol&polymerid=50006452&target=DNA+gyrase+subunit+B&column=ki&startPg=0&Increment=50&submit=Search

> <Link to Ligand-Target Pair in BindingDB>
http://www.bindingdb.org/jsp/dbsearch/PrimarySearch_ki.jsp?energyterm=kJ/mole&tag=r21&monomerid=50037200&enzyme=DNA+gyrase+subunit+B&column=ki&startPg=0&Increment=50&submit=Search

> <Ligand HET ID in PDB>


> <PDB ID(s) for Ligand-Target Complex>


> <PubChem CID>
17322167

> <PubChem SID>
313067077

> <ChEBI ID of Ligand>


> <ChEMBL ID of Ligand>


> <DrugBank ID of Ligand>


> <IUPHAR_GRAC ID of Ligand>


> <KEGG ID of Ligand>


> <ZINC ID of Ligand>


> <Number of Protein Chains in Target (>1 implies a multichain complex)>
1

> <BindingDB Target Chain Sequence>
MAAQKNNAPKEYGADSITILEGLEAVRKRPGMYIGSTGERGLHHLIWEVVDNAVDEAMAGFATRVDVKIHADGSVEVRDDGRGIPVEMHATGMPTIDVVMTQLHAGGKFDGETYAVSGGLHGVGVSVVNALSTRLEATVLRDGYEWFQYYDRSVPGKLKQGGETKETGTTIRFWADPEIFETTDYNFETVARRLQEMAFLNKGLTIELTDERVTAEEVVDDVVKDTAEAPKTADEKAAEATGPSKVKHRVFHYPGGLVDYVKHINRTKTPIQQSIIDFDGKGPGHEVEIAMQWNAGYSESVHTFANTINTHEGGTHEEGFRAALTSVVNRYAKDKKLLKDKDPNLTGDDIREGLAAVISVKVAEPQFEGQTKTKLGNTEVKSFVQKICNEQLQHWFEANPAEAKTVVNKAVSSAQARIAARKARELVRRKSATDIGGLPGKLADCRSTDPSKSELYVVEGDSAGGSAKSGRDSMFQAILPLRGKIINVEKARIDRVLKNTEVQSIITALGTGIHDEFDISKLRYHKIVLMADADVDGQHISTLLLTLLFRFMKPLVENGHIFLAQPPLYKLKWQRSEPEFAYSDRERDGLLEAGRAAGKKINVDDGIQRYKGLGEMDAKELWETTMDPSVRVLRQVTLDDAAAADELFSILMGEDVEARRSFITRNAKDVRFLDV

> <PDB ID(s) of Target Chain>
4BAE

> <UniProt (SwissProt) Recommended Name of Target Chain>
DNA gyrase subunit B

> <UniProt (SwissProt) Entry Name of Target Chain>
GYRB_MYCSM

> <UniProt (SwissProt) Primary ID of Target Chain>
P0C559

> <UniProt (SwissProt) Secondary ID(s) of Target Chain>
P48355,Q59555

> <UniProt (SwissProt) Alternative ID(s) of Target Chain>


> <UniProt (TrEMBL) Submitted Name of Target Chain>


> <UniProt (TrEMBL) Entry Name of Target Chain>


> <UniProt (TrEMBL) Primary ID of Target Chain>


> <UniProt (TrEMBL) Secondary ID(s) of Target Chain>


> <UniProt (TrEMBL) Alternative ID(s) of Target Chain>


$$$$

  SciTegic02271514552D

 29 32  0  0  0  0            999 V2000
   11.0076   -6.2144    0.0000 O   0  0
   11.4879   -5.5533    0.0000 C   0  0
   11.0076   -4.8922    0.0000 C   0  0
   10.2304   -5.1447    0.0000 C   0  0
   10.2304   -5.9619    0.0000 C   0  0
    9.5227   -4.7361    0.0000 C   0  0
    8.8150   -5.1447    0.0000 C   0  0
    8.8150   -5.9619    0.0000 C   0  0
    9.5227   -6.3705    0.0000 C   0  0
   12.3051   -5.5533    0.0000 C   0  0
   12.7137   -6.2610    0.0000 O   0  0
   12.7137   -4.8456    0.0000 O   0  0
    8.1073   -4.7361    0.0000 N   0  0
    7.3996   -5.1447    0.0000 C   0  0
    6.6918   -4.7361    0.0000 C   0  0
    6.6918   -3.9189    0.0000 N   0  0
    7.3996   -3.5103    0.0000 C   0  0
    8.1073   -3.9189    0.0000 C   0  0
    5.9841   -3.5103    0.0000 C   0  0
    5.9841   -2.6932    0.0000 O   0  0
    5.2764   -3.9189    0.0000 C   0  0
    4.5687   -3.5103    0.0000 C   0  0
    3.8610   -3.9189    0.0000 C   0  0
    3.1533   -3.5103    0.0000 C   0  0
    3.1533   -2.6932    0.0000 C   0  0
    3.8610   -2.2846    0.0000 C   0  0
    4.5687   -2.6932    0.0000 C   0  0
   13.5309   -4.8456    0.0000 C   0  0
   13.9395   -4.1379    0.0000 C   0  0
  1  2  1  0
  2  3  2  0
  3  4  1  0
  4  5  1  0
  1  5  1  0
  6  7  1  0
  7  8  2  0
  8  9  1  0
  5  9  2  0
  4  6  2  0
 10 11  2  0
 10 12  1  0
  2 10  1  0
 13 14  1  0
 14 15  1  0
 15 16  1  0
 16 17  1  0
 17 18  1  0
 13 18  1  0
 19 20  2  0
 19 21  1  0
 22 23  1  0
 23 24  2  0
 24 25  1  0
 25 26  2  0
 26 27  1  0
 22 27  2  0
 21 22  1  0
 16 19  1  0
  7 13  1  0
 28 29  1  0
 12 28  1  0
M  END
> <From> 
www.bindingDB.org

> <BindingDB Reactant_set_id>
50369971

> <Ligand InChI>
InChI=1S/C23H24N2O4/c1-2-28-23(27)21-16-18-15-19(8-9-20(18)29-21)24-10-12-25(13-11-24)22(26)14-17-6-4-3-5-7-17/h3-9,15-16H,2,10-14H2,1H3

> <Ligand InChI Key>
VAQDFTZBTBUNCH-UHFFFAOYSA-N

> <BindingDB MonomerID>
50100695

> <BindingDB Ligand Name>
CHEMBL3323154

> <Target Name Assigned by Curator or DataSource>
DNA gyrase subunit B

> <Target Source Organism According to Curator or DataSource>


> <Ki (nM)>


> <IC50 (nM)>
 9200

> <Kd (nM)>


> <EC50 (nM)>


> <kon (M-1-s-1)>


> <koff (s-1)>


> <pH>


> <Temp C>


> <Curation/DataSource>
ChEMBL

> <Article DOI>
10.1016/j.bmc.2014.06.041

> <PMID>
25129171

> <PubChem AID>


> <Patent Number>


> <Authors>
Renuka, J; Reddy, KI; Srihari, K; Jeankumar, VU; Shravan, M; Sridevi, JP; Yogeeswari, P; Babu, KS; Sriram, D

> <Institution>
Institute of Technology&amp; Science-Pilani

> <Link to Ligand in BindingDB>
http://www.bindingdb.org/bind/chemsearch/marvin/MolStructure.jsp?monomerid=50100695

> <Link to Ligand-Target Pair in BindingDB>
http://www.bindingdb.org/jsp/dbsearch/PrimarySearch_ki.jsp?energyterm=kJ/mole&tag=pol&polymerid=50006452&target=DNA+gyrase+subunit+B&column=ki&startPg=0&Increment=50&submit=Search

> <Link to Ligand-Target Pair in BindingDB>
http://www.bindingdb.org/jsp/dbsearch/PrimarySearch_ki.jsp?energyterm=kJ/mole&tag=r21&monomerid=50100695&enzyme=DNA+gyrase+subunit+B&column=ki&startPg=0&Increment=50&submit=Search

> <Ligand HET ID in PDB>


> <PDB ID(s) for Ligand-Target Complex>


> <PubChem CID>
118710566

> <PubChem SID>
103997423

> <ChEBI ID of Ligand>


> <ChEMBL ID of Ligand>
CHEMBL302060

> <DrugBank ID of Ligand>


> <IUPHAR_GRAC ID of Ligand>


> <KEGG ID of Ligand>


> <ZINC ID of Ligand>
ZINC26292567

> <Number of Protein Chains in Target (>1 implies a multichain complex)>
1

> <BindingDB Target Chain Sequence>
MAAQKNNAPKEYGADSITILEGLEAVRKRPGMYIGSTGERGLHHLIWEVVDNAVDEAMAGFATRVDVKIHADGSVEVRDDGRGIPVEMHATGMPTIDVVMTQLHAGGKFDGETYAVSGGLHGVGVSVVNALSTRLEATVLRDGYEWFQYYDRSVPGKLKQGGETKETGTTIRFWADPEIFETTDYNFETVARRLQEMAFLNKGLTIELTDERVTAEEVVDDVVKDTAEAPKTADEKAAEATGPSKVKHRVFHYPGGLVDYVKHINRTKTPIQQSIIDFDGKGPGHEVEIAMQWNAGYSESVHTFANTINTHEGGTHEEGFRAALTSVVNRYAKDKKLLKDKDPNLTGDDIREGLAAVISVKVAEPQFEGQTKTKLGNTEVKSFVQKICNEQLQHWFEANPAEAKTVVNKAVSSAQARIAARKARELVRRKSATDIGGLPGKLADCRSTDPSKSELYVVEGDSAGGSAKSGRDSMFQAILPLRGKIINVEKARIDRVLKNTEVQSIITALGTGIHDEFDISKLRYHKIVLMADADVDGQHISTLLLTLLFRFMKPLVENGHIFLAQPPLYKLKWQRSEPEFAYSDRERDGLLEAGRAAGKKINVDDGIQRYKGLGEMDAKELWETTMDPSVRVLRQVTLDDAAAADELFSILMGEDVEARRSFITRNAKDVRFLDV

> <PDB ID(s) of Target Chain>
4BAE

> <UniProt (SwissProt) Recommended Name of Target Chain>
DNA gyrase subunit B

> <UniProt (SwissProt) Entry Name of Target Chain>
GYRB_MYCSM

> <UniProt (SwissProt) Primary ID of Target Chain>
P0C559

> <UniProt (SwissProt) Secondary ID(s) of Target Chain>
P48355,Q59555

> <UniProt (SwissProt) Alternative ID(s) of Target Chain>


> <UniProt (TrEMBL) Submitted Name of Target Chain>


> <UniProt (TrEMBL) Entry Name of Target Chain>


> <UniProt (TrEMBL) Primary ID of Target Chain>


> <UniProt (TrEMBL) Secondary ID(s) of Target Chain>


> <UniProt (TrEMBL) Alternative ID(s) of Target Chain>


$$$$

  SciTegic12211708252D

 29 32  0  0  0  0            999 V2000
   16.4362   -5.4515    0.0000 N   0  0
   15.7228   -5.8493    0.0000 C   0  0
   15.7098   -6.6664    0.0000 C   0  0
   16.4144   -7.0856    0.0000 N   0  0
   17.1278   -6.6877    0.0000 C   0  0
   17.1366   -5.8706    0.0000 C   0  0
   16.4450   -4.6344    0.0000 C   0  0
   17.1584   -4.2365    0.0000 N   0  0
   15.7445   -4.2152    0.0000 O   0  0
   17.1713   -3.4194    0.0000 C   0  0
   17.8847   -3.0174    0.0000 C   0  0
   17.8976   -2.2003    0.0000 C   0  0
   17.1931   -1.7853    0.0000 C   0  0
   16.4797   -2.1832    0.0000 C   0  0
   16.4709   -3.0002    0.0000 C   0  0
   16.3797   -9.5368    0.0000 N   0  0
   17.0931   -9.1389    0.0000 C   0  0
   17.1019   -8.3219    0.0000 C   0  0
   16.4015   -7.9027    0.0000 C   0  0
   15.6881   -8.3006    0.0000 C   0  0
   14.9876   -7.8814    0.0000 C   0  0
   14.2742   -8.2793    0.0000 C   0  0
   14.2613   -9.1005    0.0000 C   0  0
   14.9617   -9.5155    0.0000 C   0  0
   15.6793   -9.1176    0.0000 C   0  0
   13.5479   -9.4983    0.0000 Cl  0  0
   17.2013   -0.9696    0.0000 N   0  3
   16.4985   -0.5527    0.0000 O   0  0
   17.9138   -0.5694    0.0000 O   0  5
  1  2  1  0
  2  3  1  0
  3  4  1  0
  4  5  1  0
  5  6  1  0
  1  6  1  0
  7  8  1  0
  7  9  2  0
  1  7  1  0
 10 11  1  0
 11 12  2  0
 12 13  1  0
 13 14  2  0
 14 15  1  0
 10 15  2  0
  8 10  1  0
 16 17  2  0
 17 18  1  0
 18 19  2  0
 19 20  1  0
 20 21  2  0
 21 22  1  0
 22 23  2  0
 23 24  1  0
 24 25  2  0
 16 25  1  0
 20 25  1  0
 23 26  1  0
  4 19  1  0
 27 28  2  0
 27 29  1  0
 13 27  1  0
M  CHG  2  27   1  29  -1
M  END
> <From> 
www.bindingDB.org

> <BindingDB Reactant_set_id>
50528092

> <Ligand InChI>
InChI=1S/C20H18ClN5O3/c21-14-1-6-17-18(13-14)22-8-7-19(17)24-9-11-25(12-10-24)20(27)23-15-2-4-16(5-3-15)26(28)29/h1-8,13H,9-12H2,(H,23,27)

> <Ligand InChI Key>
KYDBABCTUXJUFW-UHFFFAOYSA-N

> <BindingDB MonomerID>
50202238

> <BindingDB Ligand Name>
CHEMBL3916010

> <Target Name Assigned by Curator or DataSource>
DNA gyrase subunit B

> <Target Source Organism According to Curator or DataSource>


> <Ki (nM)>


> <IC50 (nM)>
 9200

> <Kd (nM)>


> <EC50 (nM)>


> <kon (M-1-s-1)>


> <koff (s-1)>


> <pH>


> <Temp C>


> <Curation/DataSource>
ChEMBL

> <Article DOI>
10.1016/j.ejmech.2016.06.042

> <PMID>
27371925

> <PubChem AID>


> <Patent Number>


> <Authors>
Jeankumar, VU; Reshma, RS; Vats, R; Janupally, R; Saxena, S; Yogeeswari, P; Sriram, D

> <Institution>
Birla Institute of Technology&amp; Science-Pilani

> <Link to Ligand in BindingDB>
http://www.bindingdb.org/bind/chemsearch/marvin/MolStructure.jsp?monomerid=50202238

> <Link to Ligand-Target Pair in BindingDB>
http://www.bindingdb.org/jsp/dbsearch/PrimarySearch_ki.jsp?energyterm=kJ/mole&tag=pol&polymerid=50006452&target=DNA+gyrase+subunit+B&column=ki&startPg=0&Increment=50&submit=Search

> <Link to Ligand-Target Pair in BindingDB>
http://www.bindingdb.org/jsp/dbsearch/PrimarySearch_ki.jsp?energyterm=kJ/mole&tag=r21&monomerid=50202238&enzyme=DNA+gyrase+subunit+B&column=ki&startPg=0&Increment=50&submit=Search

> <Ligand HET ID in PDB>


> <PDB ID(s) for Ligand-Target Complex>


> <PubChem CID>
134142480

> <PubChem SID>
375979602

> <ChEBI ID of Ligand>


> <ChEMBL ID of Ligand>


> <DrugBank ID of Ligand>


> <IUPHAR_GRAC ID of Ligand>


> <KEGG ID of Ligand>


> <ZINC ID of Ligand>


> <Number of Protein Chains in Target (>1 implies a multichain complex)>
1

> <BindingDB Target Chain Sequence>
MAAQKNNAPKEYGADSITILEGLEAVRKRPGMYIGSTGERGLHHLIWEVVDNAVDEAMAGFATRVDVKIHADGSVEVRDDGRGIPVEMHATGMPTIDVVMTQLHAGGKFDGETYAVSGGLHGVGVSVVNALSTRLEATVLRDGYEWFQYYDRSVPGKLKQGGETKETGTTIRFWADPEIFETTDYNFETVARRLQEMAFLNKGLTIELTDERVTAEEVVDDVVKDTAEAPKTADEKAAEATGPSKVKHRVFHYPGGLVDYVKHINRTKTPIQQSIIDFDGKGPGHEVEIAMQWNAGYSESVHTFANTINTHEGGTHEEGFRAALTSVVNRYAKDKKLLKDKDPNLTGDDIREGLAAVISVKVAEPQFEGQTKTKLGNTEVKSFVQKICNEQLQHWFEANPAEAKTVVNKAVSSAQARIAARKARELVRRKSATDIGGLPGKLADCRSTDPSKSELYVVEGDSAGGSAKSGRDSMFQAILPLRGKIINVEKARIDRVLKNTEVQSIITALGTGIHDEFDISKLRYHKIVLMADADVDGQHISTLLLTLLFRFMKPLVENGHIFLAQPPLYKLKWQRSEPEFAYSDRERDGLLEAGRAAGKKINVDDGIQRYKGLGEMDAKELWETTMDPSVRVLRQVTLDDAAAADELFSILMGEDVEARRSFITRNAKDVRFLDV

> <PDB ID(s) of Target Chain>
4BAE

> <UniProt (SwissProt) Recommended Name of Target Chain>
DNA gyrase subunit B

> <UniProt (SwissProt) Entry Name of Target Chain>
GYRB_MYCSM

> <UniProt (SwissProt) Primary ID of Target Chain>
P0C559

> <UniProt (SwissProt) Secondary ID(s) of Target Chain>
P48355,Q59555

> <UniProt (SwissProt) Alternative ID(s) of Target Chain>


> <UniProt (TrEMBL) Submitted Name of Target Chain>


> <UniProt (TrEMBL) Entry Name of Target Chain>


> <UniProt (TrEMBL) Primary ID of Target Chain>


> <UniProt (TrEMBL) Secondary ID(s) of Target Chain>


> <UniProt (TrEMBL) Alternative ID(s) of Target Chain>


$$$$

  SciTegic09081514182D

 31 34  0  0  0  0            999 V2000
   -2.6111    0.7486    0.0000 C   0  0
   -2.6111   -0.7486    0.0000 C   0  0
   -1.2964   -1.4973    0.0000 C   0  0
   -1.2964    1.4973    0.0000 C   0  0
    0.0000    0.7486    0.0000 C   0  0
    0.0000   -0.7486    0.0000 C   0  0
    1.2964   -1.4973    0.0000 N   0  0
    2.5929   -0.7486    0.0000 C   0  0
    2.5929    0.7486    0.0000 C   0  0
    1.2964    1.4973    0.0000 C   0  0
    1.2964    2.9980    0.0000 N   0  0
   -0.0014    3.7503    0.0000 C   0  0
    0.0011    5.2503    0.0000 C   0  0
    1.3014    5.9981    0.0000 C   0  0
    2.5992    5.2460    0.0000 C   0  0
    2.5967    3.7460    0.0000 C   0  0
    1.3069    7.4990    0.0000 N   0  0
    2.6090    8.2454    0.0000 C   0  0
    3.6462    7.6419    0.0000 O   0  0
    2.6145    9.7462    0.0000 N   0  0
    3.9166   10.4926    0.0000 C   0  0
    3.9243   11.9926    0.0000 C   0  0
    5.2272   12.7360    0.0000 C   0  0
    6.5224   11.9794    0.0000 C   0  0
    6.5147   10.4794    0.0000 C   0  0
    5.2119    9.7360    0.0000 C   0  0
    3.6321   -1.3486    0.0000 C   0  0
    7.8275   12.7204    0.0000 O   0  0
    8.8628   12.1137    0.0000 C   0  0
   -3.9091    1.5019    0.0000 O   0  0
   -3.9072    2.7019    0.0000 C   0  0
  1  2  2  0
  2  3  1  0
  3  6  2  0
  5  4  2  0
  4  1  1  0
  5  6  1  0
  6  7  1  0
  7  8  2  0
  8  9  1  0
  9 10  2  0
 10  5  1  0
 11 12  1  0
 11 16  1  0
 12 13  1  0
 13 14  1  0
 14 15  1  0
 15 16  1  0
 10 11  1  0
 14 17  1  0
 17 18  1  0
 18 19  2  0
 18 20  1  0
 20 21  1  0
 21 22  2  0
 22 23  1  0
 23 24  2  0
 24 25  1  0
 25 26  2  0
 26 21  1  0
  8 27  1  0
 24 28  1  0
 28 29  1  0
  1 30  1  0
 30 31  1  0
M  END
> <From> 
www.bindingDB.org

> <BindingDB Reactant_set_id>
50303806

> <Ligand InChI>
InChI=1S/C24H28N4O3/c1-16-14-23(21-15-20(31-3)8-9-22(21)25-16)28-12-10-18(11-13-28)27-24(29)26-17-4-6-19(30-2)7-5-17/h4-9,14-15,18H,10-13H2,1-3H3,(H2,26,27,29)

> <Ligand InChI Key>
DBXQZKAXKLZZMS-UHFFFAOYSA-N

> <BindingDB MonomerID>
50066968

> <BindingDB Ligand Name>
CHEMBL3403253

> <Target Name Assigned by Curator or DataSource>
DNA gyrase subunit B

> <Target Source Organism According to Curator or DataSource>


> <Ki (nM)>


> <IC50 (nM)>
 9250

> <Kd (nM)>


> <EC50 (nM)>


> <kon (M-1-s-1)>


> <koff (s-1)>


> <pH>


> <Temp C>


> <Curation/DataSource>
ChEMBL

> <Article DOI>
10.1016/j.bmc.2015.03.004

> <PMID>
25801151

> <PubChem AID>


> <Patent Number>


> <Authors>
Medapi, B; Renuka, J; Saxena, S; Sridevi, JP; Medishetti, R; Kulkarni, P; Yogeeswari, P; Sriram, D

> <Institution>
Birla Institute of Technology&amp; Science-Pilani

> <Link to Ligand in BindingDB>
http://www.bindingdb.org/bind/chemsearch/marvin/MolStructure.jsp?monomerid=50066968

> <Link to Ligand-Target Pair in BindingDB>
http://www.bindingdb.org/jsp/dbsearch/PrimarySearch_ki.jsp?energyterm=kJ/mole&tag=pol&polymerid=50006452&target=DNA+gyrase+subunit+B&column=ki&startPg=0&Increment=50&submit=Search

> <Link to Ligand-Target Pair in BindingDB>
http://www.bindingdb.org/jsp/dbsearch/PrimarySearch_ki.jsp?energyterm=kJ/mole&tag=r21&monomerid=50066968&enzyme=DNA+gyrase+subunit+B&column=ki&startPg=0&Increment=50&submit=Search

> <Ligand HET ID in PDB>


> <PDB ID(s) for Ligand-Target Complex>


> <PubChem CID>
118729669

> <PubChem SID>
103961504

> <ChEBI ID of Ligand>


> <ChEMBL ID of Ligand>


> <DrugBank ID of Ligand>


> <IUPHAR_GRAC ID of Ligand>


> <KEGG ID of Ligand>


> <ZINC ID of Ligand>
ZINC36295088

> <Number of Protein Chains in Target (>1 implies a multichain complex)>
1

> <BindingDB Target Chain Sequence>
MAAQKNNAPKEYGADSITILEGLEAVRKRPGMYIGSTGERGLHHLIWEVVDNAVDEAMAGFATRVDVKIHADGSVEVRDDGRGIPVEMHATGMPTIDVVMTQLHAGGKFDGETYAVSGGLHGVGVSVVNALSTRLEATVLRDGYEWFQYYDRSVPGKLKQGGETKETGTTIRFWADPEIFETTDYNFETVARRLQEMAFLNKGLTIELTDERVTAEEVVDDVVKDTAEAPKTADEKAAEATGPSKVKHRVFHYPGGLVDYVKHINRTKTPIQQSIIDFDGKGPGHEVEIAMQWNAGYSESVHTFANTINTHEGGTHEEGFRAALTSVVNRYAKDKKLLKDKDPNLTGDDIREGLAAVISVKVAEPQFEGQTKTKLGNTEVKSFVQKICNEQLQHWFEANPAEAKTVVNKAVSSAQARIAARKARELVRRKSATDIGGLPGKLADCRSTDPSKSELYVVEGDSAGGSAKSGRDSMFQAILPLRGKIINVEKARIDRVLKNTEVQSIITALGTGIHDEFDISKLRYHKIVLMADADVDGQHISTLLLTLLFRFMKPLVENGHIFLAQPPLYKLKWQRSEPEFAYSDRERDGLLEAGRAAGKKINVDDGIQRYKGLGEMDAKELWETTMDPSVRVLRQVTLDDAAAADELFSILMGEDVEARRSFITRNAKDVRFLDV

> <PDB ID(s) of Target Chain>
4BAE

> <UniProt (SwissProt) Recommended Name of Target Chain>
DNA gyrase subunit B

> <UniProt (SwissProt) Entry Name of Target Chain>
GYRB_MYCSM

> <UniProt (SwissProt) Primary ID of Target Chain>
P0C559

> <UniProt (SwissProt) Secondary ID(s) of Target Chain>
P48355,Q59555

> <UniProt (SwissProt) Alternative ID(s) of Target Chain>


> <UniProt (TrEMBL) Submitted Name of Target Chain>


> <UniProt (TrEMBL) Entry Name of Target Chain>


> <UniProt (TrEMBL) Primary ID of Target Chain>


> <UniProt (TrEMBL) Secondary ID(s) of Target Chain>


> <UniProt (TrEMBL) Alternative ID(s) of Target Chain>


$$$$

  Mrv0541 03201611132D          

 25 28  0  0  0  0            999 V2000
   16.5167  -15.4772    0.0000 N   0  0  0  0  0  0  0  0  0  0  0  0
   16.2595  -16.2618    0.0000 C   0  0  0  0  0  0  0  0  0  0  0  0
   15.4535  -16.4343    0.0000 C   0  0  0  0  0  0  0  0  0  0  0  0
   14.9005  -15.8220    0.0000 N   0  0  0  0  0  0  0  0  0  0  0  0
   15.1575  -15.0374    0.0000 C   0  0  0  0  0  0  0  0  0  0  0  0
   15.9635  -14.8649    0.0000 C   0  0  0  0  0  0  0  0  0  0  0  0
   17.3227  -15.3048    0.0000 C   0  0  0  0  0  0  0  0  0  0  0  0
   17.5797  -14.5243    0.0000 N   0  0  0  0  0  0  0  0  0  0  0  0
   17.8757  -15.9212    0.0000 S   0  0  0  0  0  0  0  0  0  0  0  0
   18.3746  -14.3092    0.0000 C   0  0  0  0  0  0  0  0  0  0  0  0
   18.5899  -13.5101    0.0000 C   0  0  0  0  0  0  0  0  0  0  0  0
   19.3848  -13.2991    0.0000 C   0  0  0  0  0  0  0  0  0  0  0  0
   19.9686  -13.8830    0.0000 C   0  0  0  0  0  0  0  0  0  0  0  0
   19.7576  -14.6779    0.0000 C   0  0  0  0  0  0  0  0  0  0  0  0
   18.9585  -14.8931    0.0000 C   0  0  0  0  0  0  0  0  0  0  0  0
   20.7676  -13.6678    0.0000 Cl  0  0  0  0  0  0  0  0  0  0  0  0
   12.9387  -16.6598    0.0000 S   0  0  0  0  0  0  0  0  0  0  0  0
   13.7610  -16.7489    0.0000 N   0  0  0  0  0  0  0  0  0  0  0  0
   14.0945  -15.9944    0.0000 C   0  0  0  0  0  0  0  0  0  0  0  0
   13.4822  -15.4413    0.0000 C   0  0  0  0  0  0  0  0  0  0  0  0
   12.7705  -15.8538    0.0000 C   0  0  0  0  0  0  0  0  0  0  0  0
   12.0547  -15.4413    0.0000 C   0  0  0  0  0  0  0  0  0  0  0  0
   12.0547  -14.6163    0.0000 C   0  0  0  0  0  0  0  0  0  0  0  0
   12.7705  -14.2038    0.0000 C   0  0  0  0  0  0  0  0  0  0  0  0
   13.4822  -14.6163    0.0000 C   0  0  0  0  0  0  0  0  0  0  0  0
  1  2  1  0  0  0  0
  2  3  1  0  0  0  0
  3  4  1  0  0  0  0
  4  5  1  0  0  0  0
  5  6  1  0  0  0  0
  1  6  1  0  0  0  0
  7  8  1  0  0  0  0
  7  9  2  0  0  0  0
  1  7  1  0  0  0  0
 10 11  4  0  0  0  0
 11 12  4  0  0  0  0
 12 13  4  0  0  0  0
 13 14  4  0  0  0  0
 14 15  4  0  0  0  0
 10 15  4  0  0  0  0
 13 16  1  0  0  0  0
  8 10  1  0  0  0  0
 17 18  4  0  0  0  0
 18 19  4  0  0  0  0
 19 20  4  0  0  0  0
 20 21  4  0  0  0  0
 17 21  4  0  0  0  0
 22 23  4  0  0  0  0
 23 24  4  0  0  0  0
 24 25  4  0  0  0  0
 20 25  4  0  0  0  0
 21 22  4  0  0  0  0
  4 19  1  0  0  0  0
M  END
> <From> 
www.bindingDB.org

> <BindingDB Reactant_set_id>
50254218

> <Ligand InChI>
InChI=1S/C18H17ClN4S2/c19-13-5-7-14(8-6-13)20-18(24)23-11-9-22(10-12-23)17-15-3-1-2-4-16(15)25-21-17/h1-8H,9-12H2,(H,20,24)

> <Ligand InChI Key>
MDRFEKSMEAOGOJ-UHFFFAOYSA-N

> <BindingDB MonomerID>
50037199

> <BindingDB Ligand Name>
CHEMBL3355804

> <Target Name Assigned by Curator or DataSource>
DNA gyrase subunit B

> <Target Source Organism According to Curator or DataSource>


> <Ki (nM)>


> <IC50 (nM)>
 9320

> <Kd (nM)>


> <EC50 (nM)>


> <kon (M-1-s-1)>


> <koff (s-1)>


> <pH>


> <Temp C>


> <Curation/DataSource>
ChEMBL

> <Article DOI>
10.1016/j.bmc.2014.10.016

> <PMID>
25456076

> <PubChem AID>


> <Patent Number>


> <Authors>
Reddy, KI; Srihari, K; Renuka, J; Sree, KS; Chuppala, A; Jeankumar, VU; Sridevi, JP; Babu, KS; Yogeeswari, P; Sriram, D

> <Institution>
TBA

> <Link to Ligand in BindingDB>
http://www.bindingdb.org/bind/chemsearch/marvin/MolStructure.jsp?monomerid=50037199

> <Link to Ligand-Target Pair in BindingDB>
http://www.bindingdb.org/jsp/dbsearch/PrimarySearch_ki.jsp?energyterm=kJ/mole&tag=pol&polymerid=50006452&target=DNA+gyrase+subunit+B&column=ki&startPg=0&Increment=50&submit=Search

> <Link to Ligand-Target Pair in BindingDB>
http://www.bindingdb.org/jsp/dbsearch/PrimarySearch_ki.jsp?energyterm=kJ/mole&tag=r21&monomerid=50037199&enzyme=DNA+gyrase+subunit+B&column=ki&startPg=0&Increment=50&submit=Search

> <Ligand HET ID in PDB>


> <PDB ID(s) for Ligand-Target Complex>


> <PubChem CID>
59774576

> <PubChem SID>
313067076

> <ChEBI ID of Ligand>


> <ChEMBL ID of Ligand>


> <DrugBank ID of Ligand>


> <IUPHAR_GRAC ID of Ligand>


> <KEGG ID of Ligand>


> <ZINC ID of Ligand>


> <Number of Protein Chains in Target (>1 implies a multichain complex)>
1

> <BindingDB Target Chain Sequence>
MAAQKNNAPKEYGADSITILEGLEAVRKRPGMYIGSTGERGLHHLIWEVVDNAVDEAMAGFATRVDVKIHADGSVEVRDDGRGIPVEMHATGMPTIDVVMTQLHAGGKFDGETYAVSGGLHGVGVSVVNALSTRLEATVLRDGYEWFQYYDRSVPGKLKQGGETKETGTTIRFWADPEIFETTDYNFETVARRLQEMAFLNKGLTIELTDERVTAEEVVDDVVKDTAEAPKTADEKAAEATGPSKVKHRVFHYPGGLVDYVKHINRTKTPIQQSIIDFDGKGPGHEVEIAMQWNAGYSESVHTFANTINTHEGGTHEEGFRAALTSVVNRYAKDKKLLKDKDPNLTGDDIREGLAAVISVKVAEPQFEGQTKTKLGNTEVKSFVQKICNEQLQHWFEANPAEAKTVVNKAVSSAQARIAARKARELVRRKSATDIGGLPGKLADCRSTDPSKSELYVVEGDSAGGSAKSGRDSMFQAILPLRGKIINVEKARIDRVLKNTEVQSIITALGTGIHDEFDISKLRYHKIVLMADADVDGQHISTLLLTLLFRFMKPLVENGHIFLAQPPLYKLKWQRSEPEFAYSDRERDGLLEAGRAAGKKINVDDGIQRYKGLGEMDAKELWETTMDPSVRVLRQVTLDDAAAADELFSILMGEDVEARRSFITRNAKDVRFLDV

> <PDB ID(s) of Target Chain>
4BAE

> <UniProt (SwissProt) Recommended Name of Target Chain>
DNA gyrase subunit B

> <UniProt (SwissProt) Entry Name of Target Chain>
GYRB_MYCSM

> <UniProt (SwissProt) Primary ID of Target Chain>
P0C559

> <UniProt (SwissProt) Secondary ID(s) of Target Chain>
P48355,Q59555

> <UniProt (SwissProt) Alternative ID(s) of Target Chain>


> <UniProt (TrEMBL) Submitted Name of Target Chain>


> <UniProt (TrEMBL) Entry Name of Target Chain>


> <UniProt (TrEMBL) Primary ID of Target Chain>


> <UniProt (TrEMBL) Secondary ID(s) of Target Chain>


> <UniProt (TrEMBL) Alternative ID(s) of Target Chain>


$$$$

  SciTegic04201612532D

 36 39  0  0  0  0            999 V2000
   -1.2964    1.4973    0.0000 N   0  0
   -2.6111    0.7486    0.0000 C   0  0
   -2.6111   -0.7486    0.0000 C   0  0
   -1.2964   -1.4973    0.0000 C   0  0
    0.0000   -0.7486    0.0000 C   0  0
    1.2964   -1.4973    0.0000 C   0  0
    2.5929   -0.7486    0.0000 C   0  0
    2.5929    0.7486    0.0000 C   0  0
    1.2964    1.4973    0.0000 C   0  0
    0.0000    0.7486    0.0000 C   0  0
   -3.9122   -1.4966    0.0000 C   0  0
   -3.9138   -2.4966    0.0000 O   0  0
   -5.2109   -0.7445    0.0000 O   0  0
   -1.2907   -2.9981    0.0000 N   0  0
   -2.5870   -3.7544    0.0000 C   0  0
   -2.5835   -5.2544    0.0000 C   0  0
   -3.8807   -6.0076    0.0000 C   0  0
   -5.1815   -5.2608    0.0000 C   0  0
   -5.1852   -3.7608    0.0000 C   0  0
   -3.8880   -3.0076    0.0000 C   0  0
   -6.4810   -6.0117    0.0000 N   0  0
   -7.7815   -5.2626    0.0000 C   0  0
   -9.0810   -6.0135    0.0000 C   0  0
  -10.3815   -5.2644    0.0000 C   0  0
  -14.2755   -7.5217    0.0000 N   0  0
  -14.2791   -6.0217    0.0000 C   0  0
  -12.9819   -5.2686    0.0000 C   0  0
  -11.6810   -6.0154    0.0000 N   0  0
  -11.6774   -7.5154    0.0000 C   0  0
  -12.9746   -8.2686    0.0000 C   0  0
   -6.5121   -1.4924    0.0000 C   0  0
   -7.5506   -0.8910    0.0000 C   0  0
  -15.5719   -8.2779    0.0000 C   0  0
  -15.5672   -9.4779    0.0000 C   0  0
    3.8942   -1.4964    0.0000 O   0  0
    4.9326   -0.8949    0.0000 C   0  0
  1  2  2  0
  2  3  1  0
  3  4  2  0
  4  5  1  0
  5  6  2  0
  6  7  1  0
  7  8  2  0
  8  9  1  0
  9 10  2  0
  1 10  1  0
  5 10  1  0
 11 12  2  0
 11 13  1  0
  3 11  1  0
 15 16  1  0
 16 17  2  0
 17 18  1  0
 18 19  2  0
 19 20  1  0
 15 20  2  0
 22 23  1  0
 23 24  1  0
 21 22  1  0
 25 26  1  0
 26 27  1  0
 27 28  1  0
 28 29  1  0
 29 30  1  0
 25 30  1  0
 24 28  1  0
 18 21  1  0
 14 15  1  0
  4 14  1  0
 31 32  1  0
 13 31  1  0
 25 33  1  0
 33 34  1  0
 35 36  1  0
  7 35  1  0
M  END
> <From> 
www.bindingDB.org

> <BindingDB Reactant_set_id>
50426781

> <Ligand InChI>
InChI=1S/C28H37N5O3/c1-4-32-15-17-33(18-16-32)14-6-13-29-21-7-9-22(10-8-21)31-27-24-19-23(35-3)11-12-26(24)30-20-25(27)28(34)36-5-2/h7-12,19-20,29H,4-6,13-18H2,1-3H3,(H,30,31)

> <Ligand InChI Key>
HGWWKPGGTAUREA-UHFFFAOYSA-N

> <BindingDB MonomerID>
50126825

> <BindingDB Ligand Name>
CHEMBL3628437

> <Target Name Assigned by Curator or DataSource>
DNA gyrase subunit B

> <Target Source Organism According to Curator or DataSource>


> <Ki (nM)>


> <IC50 (nM)>
 9550

> <Kd (nM)>


> <EC50 (nM)>


> <kon (M-1-s-1)>


> <koff (s-1)>


> <pH>


> <Temp C>


> <Curation/DataSource>
ChEMBL

> <Article DOI>
10.1016/j.ejmech.2015.06.032

> <PMID>
26318054

> <PubChem AID>


> <Patent Number>


> <Authors>
Medapi, B; Suryadevara, P; Renuka, J; Sridevi, JP; Yogeeswari, P; Sriram, D

> <Institution>
Birla Institute of Technology&amp;Science

> <Link to Ligand in BindingDB>
http://www.bindingdb.org/bind/chemsearch/marvin/MolStructure.jsp?monomerid=50126825

> <Link to Ligand-Target Pair in BindingDB>
http://www.bindingdb.org/jsp/dbsearch/PrimarySearch_ki.jsp?energyterm=kJ/mole&tag=pol&polymerid=50006452&target=DNA+gyrase+subunit+B&column=ki&startPg=0&Increment=50&submit=Search

> <Link to Ligand-Target Pair in BindingDB>
http://www.bindingdb.org/jsp/dbsearch/PrimarySearch_ki.jsp?energyterm=kJ/mole&tag=r21&monomerid=50126825&enzyme=DNA+gyrase+subunit+B&column=ki&startPg=0&Increment=50&submit=Search

> <Ligand HET ID in PDB>
SVR

> <PDB ID(s) for Ligand-Target Complex>
1Y4L,1Y8E,2H9T,2NYR,3BF6,3BJW,3GAN,3PP7,3UR0,4J4V,4X3U,4YV5

> <PubChem CID>
122193450

> <PubChem SID>
104018893

> <ChEBI ID of Ligand>


> <ChEMBL ID of Ligand>


> <DrugBank ID of Ligand>


> <IUPHAR_GRAC ID of Ligand>


> <KEGG ID of Ligand>


> <ZINC ID of Ligand>


> <Number of Protein Chains in Target (>1 implies a multichain complex)>
1

> <BindingDB Target Chain Sequence>
MAAQKNNAPKEYGADSITILEGLEAVRKRPGMYIGSTGERGLHHLIWEVVDNAVDEAMAGFATRVDVKIHADGSVEVRDDGRGIPVEMHATGMPTIDVVMTQLHAGGKFDGETYAVSGGLHGVGVSVVNALSTRLEATVLRDGYEWFQYYDRSVPGKLKQGGETKETGTTIRFWADPEIFETTDYNFETVARRLQEMAFLNKGLTIELTDERVTAEEVVDDVVKDTAEAPKTADEKAAEATGPSKVKHRVFHYPGGLVDYVKHINRTKTPIQQSIIDFDGKGPGHEVEIAMQWNAGYSESVHTFANTINTHEGGTHEEGFRAALTSVVNRYAKDKKLLKDKDPNLTGDDIREGLAAVISVKVAEPQFEGQTKTKLGNTEVKSFVQKICNEQLQHWFEANPAEAKTVVNKAVSSAQARIAARKARELVRRKSATDIGGLPGKLADCRSTDPSKSELYVVEGDSAGGSAKSGRDSMFQAILPLRGKIINVEKARIDRVLKNTEVQSIITALGTGIHDEFDISKLRYHKIVLMADADVDGQHISTLLLTLLFRFMKPLVENGHIFLAQPPLYKLKWQRSEPEFAYSDRERDGLLEAGRAAGKKINVDDGIQRYKGLGEMDAKELWETTMDPSVRVLRQVTLDDAAAADELFSILMGEDVEARRSFITRNAKDVRFLDV

> <PDB ID(s) of Target Chain>
4BAE

> <UniProt (SwissProt) Recommended Name of Target Chain>
DNA gyrase subunit B

> <UniProt (SwissProt) Entry Name of Target Chain>
GYRB_MYCSM

> <UniProt (SwissProt) Primary ID of Target Chain>
P0C559

> <UniProt (SwissProt) Secondary ID(s) of Target Chain>
P48355,Q59555

> <UniProt (SwissProt) Alternative ID(s) of Target Chain>


> <UniProt (TrEMBL) Submitted Name of Target Chain>


> <UniProt (TrEMBL) Entry Name of Target Chain>


> <UniProt (TrEMBL) Primary ID of Target Chain>


> <UniProt (TrEMBL) Secondary ID(s) of Target Chain>


> <UniProt (TrEMBL) Alternative ID(s) of Target Chain>


$$$$

  SciTegic12211712202D

 25 28  0  0  0  0            999 V2000
   10.7363  -13.8828    0.0000 N   0  0
   10.0340  -13.4598    0.0000 C   0  0
   10.0514  -12.6428    0.0000 C   0  0
   10.7669  -12.2488    0.0000 C   0  0
   11.4651  -12.6677    0.0000 C   0  0
   12.1807  -12.2737    0.0000 C   0  0
   12.8788  -12.6926    0.0000 C   0  0
   12.8656  -13.5096    0.0000 C   0  0
   12.1541  -13.9077    0.0000 C   0  0
   11.4518  -13.4847    0.0000 C   0  0
   10.7802  -11.4318    0.0000 N   0  0
   10.0779  -11.0088    0.0000 C   0  0
   10.0911  -10.1918    0.0000 C   0  0
   10.8067   -9.7978    0.0000 N   0  0
   11.5090  -10.2167    0.0000 C   0  0
   11.4916  -11.0337    0.0000 C   0  0
   11.4916   -8.5099    0.0000 S   0  0
   10.8200   -8.9808    0.0000 C   0  0
   10.1695   -8.4875    0.0000 N   0  0
   10.4363   -7.7130    0.0000 C   0  0
   11.2533   -7.7262    0.0000 C   0  0
   11.7425   -7.0758    0.0000 N   0  3
   12.5546   -7.1770    0.0000 O   0  0
   11.4237   -6.3240    0.0000 O   0  5
   13.5679  -13.9326    0.0000 Cl  0  0
  1  2  2  0
  2  3  1  0
  3  4  2  0
  4  5  1  0
  5  6  2  0
  6  7  1  0
  7  8  2  0
  8  9  1  0
  9 10  2  0
  1 10  1  0
  5 10  1  0
 11 12  1  0
 12 13  1  0
 13 14  1  0
 14 15  1  0
 15 16  1  0
 11 16  1  0
 17 18  1  0
 18 19  2  0
 19 20  1  0
 20 21  2  0
 17 21  1  0
 22 23  2  0
 22 24  1  0
 21 22  1  0
 14 18  1  0
  4 11  1  0
  8 25  1  0
M  CHG  2  22   1  24  -1
M  END
> <From> 
www.bindingDB.org

> <BindingDB Reactant_set_id>
50528050

> <Ligand InChI>
InChI=1S/C16H14ClN5O2S/c17-11-1-2-12-13(9-11)18-4-3-14(12)20-5-7-21(8-6-20)16-19-10-15(25-16)22(23)24/h1-4,9-10H,5-8H2

> <Ligand InChI Key>
XOOOSUPYCAEQKZ-UHFFFAOYSA-N

> <BindingDB MonomerID>
50202005

> <BindingDB Ligand Name>
CHEMBL3921744

> <Target Name Assigned by Curator or DataSource>
DNA gyrase subunit B

> <Target Source Organism According to Curator or DataSource>


> <Ki (nM)>


> <IC50 (nM)>
 9600

> <Kd (nM)>


> <EC50 (nM)>


> <kon (M-1-s-1)>


> <koff (s-1)>


> <pH>


> <Temp C>


> <Curation/DataSource>
ChEMBL

> <Article DOI>
10.1016/j.ejmech.2016.06.042

> <PMID>
27371925

> <PubChem AID>


> <Patent Number>


> <Authors>
Jeankumar, VU; Reshma, RS; Vats, R; Janupally, R; Saxena, S; Yogeeswari, P; Sriram, D

> <Institution>
Birla Institute of Technology&amp; Science-Pilani

> <Link to Ligand in BindingDB>
http://www.bindingdb.org/bind/chemsearch/marvin/MolStructure.jsp?monomerid=50202005

> <Link to Ligand-Target Pair in BindingDB>
http://www.bindingdb.org/jsp/dbsearch/PrimarySearch_ki.jsp?energyterm=kJ/mole&tag=pol&polymerid=50006452&target=DNA+gyrase+subunit+B&column=ki&startPg=0&Increment=50&submit=Search

> <Link to Ligand-Target Pair in BindingDB>
http://www.bindingdb.org/jsp/dbsearch/PrimarySearch_ki.jsp?energyterm=kJ/mole&tag=r21&monomerid=50202005&enzyme=DNA+gyrase+subunit+B&column=ki&startPg=0&Increment=50&submit=Search

> <Ligand HET ID in PDB>


> <PDB ID(s) for Ligand-Target Complex>


> <PubChem CID>
129841608

> <PubChem SID>
375979564

> <ChEBI ID of Ligand>


> <ChEMBL ID of Ligand>


> <DrugBank ID of Ligand>


> <IUPHAR_GRAC ID of Ligand>


> <KEGG ID of Ligand>


> <ZINC ID of Ligand>


> <Number of Protein Chains in Target (>1 implies a multichain complex)>
1

> <BindingDB Target Chain Sequence>
MAAQKNNAPKEYGADSITILEGLEAVRKRPGMYIGSTGERGLHHLIWEVVDNAVDEAMAGFATRVDVKIHADGSVEVRDDGRGIPVEMHATGMPTIDVVMTQLHAGGKFDGETYAVSGGLHGVGVSVVNALSTRLEATVLRDGYEWFQYYDRSVPGKLKQGGETKETGTTIRFWADPEIFETTDYNFETVARRLQEMAFLNKGLTIELTDERVTAEEVVDDVVKDTAEAPKTADEKAAEATGPSKVKHRVFHYPGGLVDYVKHINRTKTPIQQSIIDFDGKGPGHEVEIAMQWNAGYSESVHTFANTINTHEGGTHEEGFRAALTSVVNRYAKDKKLLKDKDPNLTGDDIREGLAAVISVKVAEPQFEGQTKTKLGNTEVKSFVQKICNEQLQHWFEANPAEAKTVVNKAVSSAQARIAARKARELVRRKSATDIGGLPGKLADCRSTDPSKSELYVVEGDSAGGSAKSGRDSMFQAILPLRGKIINVEKARIDRVLKNTEVQSIITALGTGIHDEFDISKLRYHKIVLMADADVDGQHISTLLLTLLFRFMKPLVENGHIFLAQPPLYKLKWQRSEPEFAYSDRERDGLLEAGRAAGKKINVDDGIQRYKGLGEMDAKELWETTMDPSVRVLRQVTLDDAAAADELFSILMGEDVEARRSFITRNAKDVRFLDV

> <PDB ID(s) of Target Chain>
4BAE

> <UniProt (SwissProt) Recommended Name of Target Chain>
DNA gyrase subunit B

> <UniProt (SwissProt) Entry Name of Target Chain>
GYRB_MYCSM

> <UniProt (SwissProt) Primary ID of Target Chain>
P0C559

> <UniProt (SwissProt) Secondary ID(s) of Target Chain>
P48355,Q59555

> <UniProt (SwissProt) Alternative ID(s) of Target Chain>


> <UniProt (TrEMBL) Submitted Name of Target Chain>


> <UniProt (TrEMBL) Entry Name of Target Chain>


> <UniProt (TrEMBL) Primary ID of Target Chain>


> <UniProt (TrEMBL) Secondary ID(s) of Target Chain>


> <UniProt (TrEMBL) Alternative ID(s) of Target Chain>


$$$$

  SciTegic09261414462D

 22 23  0  0  0  0            999 V2000
   12.1789   -4.9329    0.0000 C   0  0
   12.8839   -5.3415    0.0000 C   0  0
   13.5929   -4.9329    0.0000 C   0  0
   14.2979   -5.3415    0.0000 C   0  0
   14.2979   -6.1587    0.0000 C   0  0
   13.5929   -6.5673    0.0000 C   0  0
   12.8839   -6.1587    0.0000 C   0  0
   12.1789   -4.1157    0.0000 O   0  0
   11.4698   -5.3415    0.0000 O   0  0
   15.0070   -4.9329    0.0000 O   0  0
   15.7161   -6.1587    0.0000 C   0  0
   15.7161   -5.3415    0.0000 C   0  0
   16.4252   -4.9329    0.0000 C   0  0
   17.1301   -5.3415    0.0000 C   0  0
   17.1301   -6.1587    0.0000 C   0  0
   16.4252   -6.5673    0.0000 N   0  0
   17.8392   -6.5673    0.0000 N   0  0
   18.5442   -6.1587    0.0000 C   0  0
   19.2533   -6.5673    0.0000 O   0  0
   18.5442   -5.3415    0.0000 N   0  0
   19.2533   -4.9329    0.0000 C   0  0
   19.2533   -4.1157    0.0000 C   0  0
  1  2  1  0
  2  3  1  0
  3  4  2  0
  4  5  1  0
  5  6  2  0
  6  7  1  0
  2  7  2  0
  1  8  2  0
  1  9  1  0
 11 12  1  0
 12 13  2  0
 13 14  1  0
 14 15  2  0
 15 16  1  0
 11 16  2  0
 10 12  1  0
 17 18  1  0
 18 19  2  0
 18 20  1  0
 21 22  1  0
 20 21  1  0
 15 17  1  0
  4 10  1  0
M  END
> <From> 
www.bindingDB.org

> <BindingDB Reactant_set_id>
50083253

> <Ligand InChI>
InChI=1S/C15H15N3O4/c1-2-16-15(21)18-13-7-6-12(9-17-13)22-11-5-3-4-10(8-11)14(19)20/h3-9H,2H2,1H3,(H,19,20)(H2,16,17,18,21)

> <Ligand InChI Key>
DZNKXRIFPGIGMF-UHFFFAOYSA-N

> <BindingDB MonomerID>
50006545

> <BindingDB Ligand Name>
CHEMBL3235069

> <Target Name Assigned by Curator or DataSource>
DNA Gyrase Subunit B

> <Target Source Organism According to Curator or DataSource>
Staphylococcus aureus

> <Ki (nM)>


> <IC50 (nM)>
 9900

> <Kd (nM)>


> <EC50 (nM)>


> <kon (M-1-s-1)>


> <koff (s-1)>


> <pH>


> <Temp C>


> <Curation/DataSource>
ChEMBL

> <Article DOI>
10.1021/jm401208b

> <PMID>
24098982

> <PubChem AID>


> <Patent Number>


> <Authors>
Basarab, GS; Basarab, GS; Boriack-Sjodin, PA; Boriack-Sjodin, PA; Illingworth, R; Illingworth, R; Manchester, JI; Manchester, JI; Dangel, B; Dangel, B; Sriram, S; Sriram, S

> <Institution>
AstraZeneca R&amp;D Boston

> <Link to Ligand in BindingDB>
http://www.bindingdb.org/bind/chemsearch/marvin/MolStructure.jsp?monomerid=50006545

> <Link to Ligand-Target Pair in BindingDB>
http://www.bindingdb.org/jsp/dbsearch/PrimarySearch_ki.jsp?energyterm=kJ/mole&tag=pol&polymerid=2626&target=DNA+Gyrase+Subunit+B&column=ki&startPg=0&Increment=50&submit=Search

> <Link to Ligand-Target Pair in BindingDB>
http://www.bindingdb.org/jsp/dbsearch/PrimarySearch_ki.jsp?energyterm=kJ/mole&tag=r21&monomerid=50006545&enzyme=DNA+Gyrase+Subunit+B&column=ki&startPg=0&Increment=50&submit=Search

> <Ligand HET ID in PDB>


> <PDB ID(s) for Ligand-Target Complex>


> <PubChem CID>
72712073

> <PubChem SID>
103919946

> <ChEBI ID of Ligand>


> <ChEMBL ID of Ligand>
CHEMBL3235069

> <DrugBank ID of Ligand>


> <IUPHAR_GRAC ID of Ligand>


> <KEGG ID of Ligand>


> <ZINC ID of Ligand>
ZINC13456315

> <Number of Protein Chains in Target (>1 implies a multichain complex)>
1

> <BindingDB Target Chain Sequence>
MVTALSDVNNTDNYGAGQIQVLEGLEAVRKRPGMYIGSTSERGLHHLVWEIVDNSIDEALAGYANQIEVVIEKDNWIKVTDNGRGIPVDIQEKMGRPAVEVILTVLHAGGKFGGGGYKVSGGLHGVGSSVVNALSQDLEVYVHRNETIYHQAYKKGVPQFDLKEVGTTDKTGTVIRFKADGEIFTETTVYNYETLQQRIRELAFLNKGIQITLRDERDEENVREDSYHYEGGIKSYVELLNENKEPIHDEPIYIHQSKDDIEVEIAIQYNSGYATNLLTYANNIHTYEGGTHEDGFKRALTRVLNSYGLSSKIMKEEKDRLSGEDTREGMTAIISIKHGDPQFEGQTKTKLGNSEVRQVVDKLFSEHFERFLYENPQVARTVVEKGIMAARARVAAKKAREVTRRKSALDVASLPGKLADCSSKSPEECEIFLVEGDSAGGSTKSGRDSRTQAILPLRGKILNVEKARLDRILNNNEIRQMITAFGTGIGGDFDLAKARYHKIVIMTDADVDGAHIRTLLLTFFYRFMRPLIEAGYVYIAQPPLYKLTQGKQKYYVYNDRELDKLKSELNPTPKWSIARYKGLGEMNADQLWETTMNPEHRALLQVKLEDAIEADQTFEMLMGDVVENRRQFIEDNAVYANLDF

> <PDB ID(s) of Target Chain>


> <UniProt (SwissProt) Recommended Name of Target Chain>
DNA gyrase subunit B

> <UniProt (SwissProt) Entry Name of Target Chain>
GYRB_STAAU

> <UniProt (SwissProt) Primary ID of Target Chain>
P0A0K8

> <UniProt (SwissProt) Secondary ID(s) of Target Chain>
P20832

> <UniProt (SwissProt) Alternative ID(s) of Target Chain>


> <UniProt (TrEMBL) Submitted Name of Target Chain>


> <UniProt (TrEMBL) Entry Name of Target Chain>


> <UniProt (TrEMBL) Primary ID of Target Chain>


> <UniProt (TrEMBL) Secondary ID(s) of Target Chain>


> <UniProt (TrEMBL) Alternative ID(s) of Target Chain>


$$$$

  SciTegic12011114592D

 27 30  0  0  0  0            999 V2000
   -1.3564   -9.0500    0.0000 C   0  0
   -0.6385   -9.4609    0.0000 N   0  0
   -1.3596   -8.2229    0.0000 O   0  0
   -0.6335  -10.2852    0.0000 C   0  0
    0.0802  -10.6959    0.0000 C   0  0
    0.7974  -10.2832    0.0000 N   0  0
    0.7963   -9.4551    0.0000 C   0  0
    0.0780   -9.0398    0.0000 C   0  0
    1.5138  -10.6967    0.0000 C   0  0
    1.5093  -11.5220    0.0000 C   0  0
    2.2249  -11.9356    0.0000 C   0  0
    2.9421  -11.5219    0.0000 N   0  0
    2.2235  -10.2809    0.0000 C   0  0
    2.9366  -10.6903    0.0000 C   0  0
    3.6456  -10.2776    0.0000 C   0  0
    3.6428   -9.4556    0.0000 C   0  0
    2.9249   -9.0479    0.0000 C   0  0
    2.2188   -9.4630    0.0000 C   0  0
    4.3568   -9.0382    0.0000 Cl  0  0
   -2.0712   -9.4663    0.0000 N   0  0
   -2.7890   -9.0554    0.0000 C   0  0
   -2.7878   -8.2304    0.0000 C   0  0
   -3.5048   -7.8196    0.0000 C   0  0
   -4.2205   -8.2360    0.0000 C   0  0
   -4.2147   -9.0673    0.0000 C   0  0
   -3.4972   -9.4743    0.0000 C   0  0
   -4.9390   -7.8260    0.0000 Cl  0  0
  2  8  1  0
  4  5  1  0
 13 14  1  0
  5  6  1  0
 14 15  2  0
  6  7  1  0
 15 16  1  0
  7  8  1  0
 16 17  2  0
 17 18  1  0
 18 13  2  0
  6  9  1  0
 16 19  1  0
  1  3  2  0
  1 20  1  0
  9 10  2  0
 20 21  1  0
  2  4  1  0
 21 22  2  0
 10 11  1  0
 22 23  1  0
  1  2  1  0
 23 24  2  0
 11 12  2  0
 24 25  1  0
 12 14  1  0
 25 26  2  0
 26 21  1  0
 13  9  1  0
 24 27  1  0
M  END
> <From> 
www.bindingDB.org

> <BindingDB Reactant_set_id>
50528089

> <Ligand InChI>
InChI=1S/C20H18Cl2N4O/c21-14-1-4-16(5-2-14)24-20(27)26-11-9-25(10-12-26)19-7-8-23-18-13-15(22)3-6-17(18)19/h1-8,13H,9-12H2,(H,24,27)

> <Ligand InChI Key>
NTIJMSJJOHXHHM-UHFFFAOYSA-N

> <BindingDB MonomerID>
50202235

> <BindingDB Ligand Name>
CHEMBL1822275

> <Target Name Assigned by Curator or DataSource>
DNA gyrase subunit B

> <Target Source Organism According to Curator or DataSource>


> <Ki (nM)>


> <IC50 (nM)>
 9900

> <Kd (nM)>


> <EC50 (nM)>


> <kon (M-1-s-1)>


> <koff (s-1)>


> <pH>


> <Temp C>


> <Curation/DataSource>
ChEMBL

> <Article DOI>
10.1016/j.ejmech.2016.06.042

> <PMID>
27371925

> <PubChem AID>


> <Patent Number>


> <Authors>
Jeankumar, VU; Reshma, RS; Vats, R; Janupally, R; Saxena, S; Yogeeswari, P; Sriram, D

> <Institution>
Birla Institute of Technology&amp; Science-Pilani

> <Link to Ligand in BindingDB>
http://www.bindingdb.org/bind/chemsearch/marvin/MolStructure.jsp?monomerid=50202235

> <Link to Ligand-Target Pair in BindingDB>
http://www.bindingdb.org/jsp/dbsearch/PrimarySearch_ki.jsp?energyterm=kJ/mole&tag=pol&polymerid=50006452&target=DNA+gyrase+subunit+B&column=ki&startPg=0&Increment=50&submit=Search

> <Link to Ligand-Target Pair in BindingDB>
http://www.bindingdb.org/jsp/dbsearch/PrimarySearch_ki.jsp?energyterm=kJ/mole&tag=r21&monomerid=50202235&enzyme=DNA+gyrase+subunit+B&column=ki&startPg=0&Increment=50&submit=Search

> <Ligand HET ID in PDB>


> <PDB ID(s) for Ligand-Target Complex>


> <PubChem CID>
46912149

> <PubChem SID>
104081845

> <ChEBI ID of Ligand>


> <ChEMBL ID of Ligand>
CHEMBL227455

> <DrugBank ID of Ligand>


> <IUPHAR_GRAC ID of Ligand>


> <KEGG ID of Ligand>


> <ZINC ID of Ligand>


> <Number of Protein Chains in Target (>1 implies a multichain complex)>
1

> <BindingDB Target Chain Sequence>
MAAQKNNAPKEYGADSITILEGLEAVRKRPGMYIGSTGERGLHHLIWEVVDNAVDEAMAGFATRVDVKIHADGSVEVRDDGRGIPVEMHATGMPTIDVVMTQLHAGGKFDGETYAVSGGLHGVGVSVVNALSTRLEATVLRDGYEWFQYYDRSVPGKLKQGGETKETGTTIRFWADPEIFETTDYNFETVARRLQEMAFLNKGLTIELTDERVTAEEVVDDVVKDTAEAPKTADEKAAEATGPSKVKHRVFHYPGGLVDYVKHINRTKTPIQQSIIDFDGKGPGHEVEIAMQWNAGYSESVHTFANTINTHEGGTHEEGFRAALTSVVNRYAKDKKLLKDKDPNLTGDDIREGLAAVISVKVAEPQFEGQTKTKLGNTEVKSFVQKICNEQLQHWFEANPAEAKTVVNKAVSSAQARIAARKARELVRRKSATDIGGLPGKLADCRSTDPSKSELYVVEGDSAGGSAKSGRDSMFQAILPLRGKIINVEKARIDRVLKNTEVQSIITALGTGIHDEFDISKLRYHKIVLMADADVDGQHISTLLLTLLFRFMKPLVENGHIFLAQPPLYKLKWQRSEPEFAYSDRERDGLLEAGRAAGKKINVDDGIQRYKGLGEMDAKELWETTMDPSVRVLRQVTLDDAAAADELFSILMGEDVEARRSFITRNAKDVRFLDV

> <PDB ID(s) of Target Chain>
4BAE

> <UniProt (SwissProt) Recommended Name of Target Chain>
DNA gyrase subunit B

> <UniProt (SwissProt) Entry Name of Target Chain>
GYRB_MYCSM

> <UniProt (SwissProt) Primary ID of Target Chain>
P0C559

> <UniProt (SwissProt) Secondary ID(s) of Target Chain>
P48355,Q59555

> <UniProt (SwissProt) Alternative ID(s) of Target Chain>


> <UniProt (TrEMBL) Submitted Name of Target Chain>


> <UniProt (TrEMBL) Entry Name of Target Chain>


> <UniProt (TrEMBL) Primary ID of Target Chain>


> <UniProt (TrEMBL) Secondary ID(s) of Target Chain>


> <UniProt (TrEMBL) Alternative ID(s) of Target Chain>


$$$$

  Mrv0541 11231413392D          

 38 41  0  0  0  0            999 V2000
   -2.7645  -13.6156    0.0000 C   0  0  0  0  0  0  0  0  0  0  0  0
   -3.4904  -13.2141    0.0000 C   0  0  1  0  0  0  0  0  0  0  0  0
   -4.1972  -13.6395    0.0000 C   0  0  2  0  0  0  0  0  0  0  0  0
   -4.1843  -14.4683    0.0000 C   0  0  2  0  0  0  0  0  0  0  0  0
   -3.4583  -14.8699    0.0000 C   0  0  1  0  0  0  0  0  0  0  0  0
   -2.7454  -14.4425    0.0000 O   0  0  0  0  0  0  0  0  0  0  0  0
   -3.4440  -15.6947    0.0000 O   0  0  0  0  0  0  0  0  0  0  0  0
   -2.7244  -16.1060    0.0000 C   0  0  0  0  0  0  0  0  0  0  0  0
   -2.7251  -16.9303    0.0000 C   0  0  0  0  0  0  0  0  0  0  0  0
   -2.0095  -15.6917    0.0000 C   0  0  0  0  0  0  0  0  0  0  0  0
   -1.2951  -16.1094    0.0000 C   0  0  0  0  0  0  0  0  0  0  0  0
   -1.2970  -16.9339    0.0000 C   0  0  0  0  0  0  0  0  0  0  0  0
   -2.0121  -17.3456    0.0000 C   0  0  0  0  0  0  0  0  0  0  0  0
   -2.0133  -18.1660    0.0000 O   0  0  0  0  0  0  0  0  0  0  0  0
   -1.3011  -18.5814    0.0000 C   0  0  0  0  0  0  0  0  0  0  0  0
   -0.5860  -18.1699    0.0000 C   0  0  0  0  0  0  0  0  0  0  0  0
   -0.5830  -17.3431    0.0000 C   0  0  0  0  0  0  0  0  0  0  0  0
    0.1314  -16.9306    0.0000 O   0  0  0  0  0  0  0  0  0  0  0  0
   -1.3035  -19.4063    0.0000 O   0  0  0  0  0  0  0  0  0  0  0  0
    0.1275  -18.5842    0.0000 N   0  0  0  0  0  0  0  0  0  0  0  0
    0.1254  -19.4090    0.0000 C   0  0  0  0  0  0  0  0  0  0  0  0
   -0.5900  -19.8198    0.0000 O   0  0  0  0  0  0  0  0  0  0  0  0
    0.8388  -19.8233    0.0000 C   0  0  0  0  0  0  0  0  0  0  0  0
    0.8338  -20.6475    0.0000 C   0  0  0  0  0  0  0  0  0  0  0  0
    1.5464  -21.0616    0.0000 C   0  0  0  0  0  0  0  0  0  0  0  0
    2.2628  -20.6509    0.0000 C   0  0  0  0  0  0  0  0  0  0  0  0
    2.2623  -19.8217    0.0000 C   0  0  0  0  0  0  0  0  0  0  0  0
    1.5491  -19.4112    0.0000 C   0  0  0  0  0  0  0  0  0  0  0  0
    2.9768  -21.0642    0.0000 O   0  0  0  0  0  0  0  0  0  0  0  0
   -1.9371  -13.5966    0.0000 C   0  0  0  0  0  0  0  0  0  0  0  0
   -2.7754  -12.7924    0.0000 C   0  0  0  0  0  0  0  0  0  0  0  0
   -3.5055  -12.3893    0.0000 O   0  0  0  0  0  0  0  0  0  0  0  0
   -2.7988  -11.9637    0.0000 C   0  0  0  0  0  0  0  0  0  0  0  0
   -4.9184  -13.2393    0.0000 O   0  0  0  0  0  0  0  0  0  0  0  0
   -4.8915  -14.8929    0.0000 O   0  0  0  0  0  0  0  0  0  0  0  0
    2.9763  -19.4085    0.0000 O   0  0  0  0  0  0  0  0  0  0  0  0
    3.6910  -19.8202    0.0000 C   0  0  0  0  0  0  0  0  0  0  0  0
   -3.4404  -17.3413    0.0000 C   0  0  0  0  0  0  0  0  0  0  0  0
 17 18  1  0  0  0  0
  1  6  1  0  0  0  0
 15 19  2  0  0  0  0
  3  2  1  0  0  0  0
 16 20  1  0  0  0  0
  8 10  2  0  0  0  0
 20 21  1  0  0  0  0
  9 13  2  0  0  0  0
 21 22  2  0  0  0  0
 11 10  1  0  0  0  0
 21 23  1  0  0  0  0
 11 12  2  0  0  0  0
 23 24  2  0  0  0  0
  3  4  1  0  0  0  0
 24 25  1  0  0  0  0
 12 13  1  0  0  0  0
 25 26  2  0  0  0  0
  4  5  1  0  0  0  0
 26 27  1  0  0  0  0
  5  6  1  0  0  0  0
 27 28  2  0  0  0  0
 28 23  1  0  0  0  0
 26 29  1  0  0  0  0
  5  7  1  1  0  0  0
  1 30  1  0  0  0  0
  2  1  1  0  0  0  0
  1 31  1  0  0  0  0
  7  8  1  0  0  0  0
  2 32  1  1  0  0  0
 12 17  1  0  0  0  0
 32 33  1  0  0  0  0
 13 14  1  0  0  0  0
  3 34  1  6  0  0  0
 14 15  1  0  0  0  0
  4 35  1  6  0  0  0
 15 16  1  0  0  0  0
 27 36  1  0  0  0  0
 16 17  2  0  0  0  0
 36 37  1  0  0  0  0
  8  9  1  0  0  0  0
  9 38  1  0  0  0  0
M  END
> <From> 
www.bindingDB.org

> <BindingDB Reactant_set_id>
50607712

> <Ligand InChI>
InChI=1S/C26H29NO11/c1-11-15(36-25-20(31)19(30)22(35-5)26(2,3)38-25)9-7-13-18(29)17(24(33)37-21(11)13)27-23(32)12-6-8-14(28)16(10-12)34-4/h6-10,19-20,22,25,28-31H,1-5H3,(H,27,32)/t19-,20+,22+,25+/m0/s1

> <Ligand InChI Key>
VLIKWDISZNWZHF-SEINPYIVSA-N

> <BindingDB MonomerID>
50330322

> <BindingDB Ligand Name>
CHEMBL1276305::N-(7-((2R,3R,4S,5R)-3,4-dihydroxy-5-methoxy-6,6-dimethyltetrahydro-2H-pyran-2-yloxy)-4-hydroxy-8-methyl-2-oxo-2H-chromen-3-yl)-4-hydroxy-3-methoxybenzamide

> <Target Name Assigned by Curator or DataSource>
DNA Gyrase Subunit B

> <Target Source Organism According to Curator or DataSource>
Escherichia coli

> <Ki (nM)>


> <IC50 (nM)>
>10000

> <Kd (nM)>


> <EC50 (nM)>


> <kon (M-1-s-1)>


> <koff (s-1)>


> <pH>


> <Temp C>


> <Curation/DataSource>
ChEMBL

> <Article DOI>
10.1128/AAC.01235-07

> <PMID>
18347114

> <PubChem AID>


> <Patent Number>


> <Authors>
Anderle, C; Stieger, M; Burrell, M; Reinelt, S; Maxwell, A; Page, M; Heide, L

> <Institution>
Universit&#228;t T&#252;bingen

> <Link to Ligand in BindingDB>
http://www.bindingdb.org/bind/chemsearch/marvin/MolStructure.jsp?monomerid=50330322

> <Link to Ligand-Target Pair in BindingDB>
http://www.bindingdb.org/jsp/dbsearch/PrimarySearch_ki.jsp?energyterm=kJ/mole&tag=pol&polymerid=2630&target=DNA+Gyrase+Subunit+B&column=ki&startPg=0&Increment=50&submit=Search

> <Link to Ligand-Target Pair in BindingDB>
http://www.bindingdb.org/jsp/dbsearch/PrimarySearch_ki.jsp?energyterm=kJ/mole&tag=r21&monomerid=50330322&enzyme=DNA+Gyrase+Subunit+B&column=ki&startPg=0&Increment=50&submit=Search

> <Ligand HET ID in PDB>


> <PDB ID(s) for Ligand-Target Complex>


> <PubChem CID>
54729434

> <PubChem SID>
123109437

> <ChEBI ID of Ligand>


> <ChEMBL ID of Ligand>
CHEMBL1276305

> <DrugBank ID of Ligand>


> <IUPHAR_GRAC ID of Ligand>


> <KEGG ID of Ligand>


> <ZINC ID of Ligand>
ZINC64436448

> <Number of Protein Chains in Target (>1 implies a multichain complex)>
1

> <BindingDB Target Chain Sequence>
MSNSYDSSSIKVLKGLDAVRKRPGMYIGDTDDGTGLHHMVFEVVDNAIDEALAGHCKEII
VTIHADNSVSVQDDGRGIPTGIHPEEGVSAAEVIMTVLHAGGKFDDNSYKVSGGLHGVGV
SVVNALSQKLELVIQREGKIHRQIYEHGVPQAPLAVTGETEKTGTMVRFWPSLETFTNVT
EFEYEILAKRLRELSFLNSGVSIRLRDKRDGKEDHFHYEGGIKAFVEYLNKNKTPIHPNI
FYFSTEKDGIGVEVALQWNDGFQENIYCFTNNIPQRDGGTHLAGFRAAMTRTLNAYMDKE
GYSKKAKVSATGDDAREGLIAVVSVKVPDPKFSSQTKDKLVSSEVKSAVEQQMNELLAEY
LLENPTDAKIVVGKIIDAARAREAARRAREMTRRKGALDLAGLPGKLADCQERDPALSEL
YLVEGDSAGGSAKQGRNRKNQAILPLKGKILNVEKARFDKMLSSQEVATLITALGCGIGR
DEYNPDKLRYHSIIIMTDADVDGSHIRTLLLTFFYRQMPEIVERGHVYIAQPPLYKVKKG
KQEQYIKDDEAMDQYQISIALDGATLHTNASAPALAGEALEKLVSEYNATQKMINRMERR
YPKAMLKELIYQPTLTEADLSDEQTVTRWVNALVSELNDKEQHGSQWKFDVHTNAEQNLF
EPIVRVRTHGVDTDYPLDHEFITGGEYRRICTLGEKLRGLLEEDAFIERGERRQPVASFE
QALDWLVKESRRGLSIQRYKGLGEMNPEQLWETTMDPESRRMLRVTVKDAIAADQLFTTL
MGDAVEPRRAFIEENALKAANIDI

> <PDB ID(s) of Target Chain>
1KZN,3G7E,3NUH,4DUH,4HYP,4KFG,4PRV,4PRX,4PU9,4WUB,4WUC,4WUD,4XTJ,4ZVI,5L3J,5MMN,5MMO,5MMP,5Z4H,5Z4O,5Z9B,5Z9E,5Z9F,5Z9L,5Z9M,5Z9N,5Z9Q,6ENG,6F86,6F8J,6F94,6F96

> <UniProt (SwissProt) Recommended Name of Target Chain>
DNA gyrase subunit B

> <UniProt (SwissProt) Entry Name of Target Chain>
GYRB_ECOLI

> <UniProt (SwissProt) Primary ID of Target Chain>
P0AES6

> <UniProt (SwissProt) Secondary ID(s) of Target Chain>
O08438,P06982,Q2M811

> <UniProt (SwissProt) Alternative ID(s) of Target Chain>


> <UniProt (TrEMBL) Submitted Name of Target Chain>


> <UniProt (TrEMBL) Entry Name of Target Chain>


> <UniProt (TrEMBL) Primary ID of Target Chain>


> <UniProt (TrEMBL) Secondary ID(s) of Target Chain>


> <UniProt (TrEMBL) Alternative ID(s) of Target Chain>


$$$$

  Mrv0541 11231413392D          

 37 40  0  0  0  0            999 V2000
    5.1322    1.7374    0.0000 C   0  0  0  0  0  0  0  0  0  0  0  0
    4.4063    2.1390    0.0000 C   0  0  1  0  0  0  0  0  0  0  0  0
    3.6996    1.7135    0.0000 C   0  0  2  0  0  0  0  0  0  0  0  0
    3.7125    0.8846    0.0000 C   0  0  2  0  0  0  0  0  0  0  0  0
    4.4384    0.4831    0.0000 C   0  0  1  0  0  0  0  0  0  0  0  0
    5.1514    0.9104    0.0000 O   0  0  0  0  0  0  0  0  0  0  0  0
    4.4527   -0.3418    0.0000 O   0  0  0  0  0  0  0  0  0  0  0  0
    5.1724   -0.7531    0.0000 C   0  0  0  0  0  0  0  0  0  0  0  0
    5.1717   -1.5776    0.0000 C   0  0  0  0  0  0  0  0  0  0  0  0
    5.8873   -0.3388    0.0000 C   0  0  0  0  0  0  0  0  0  0  0  0
    6.6018   -0.7566    0.0000 C   0  0  0  0  0  0  0  0  0  0  0  0
    6.5999   -1.5812    0.0000 C   0  0  0  0  0  0  0  0  0  0  0  0
    5.8846   -1.9927    0.0000 C   0  0  0  0  0  0  0  0  0  0  0  0
    5.8834   -2.8134    0.0000 O   0  0  0  0  0  0  0  0  0  0  0  0
    6.5958   -3.2288    0.0000 C   0  0  0  0  0  0  0  0  0  0  0  0
    7.3111   -2.8173    0.0000 C   0  0  0  0  0  0  0  0  0  0  0  0
    7.3139   -1.9903    0.0000 C   0  0  0  0  0  0  0  0  0  0  0  0
    8.0285   -1.5779    0.0000 O   0  0  0  0  0  0  0  0  0  0  0  0
    6.5935   -4.0538    0.0000 O   0  0  0  0  0  0  0  0  0  0  0  0
    8.0245   -3.2316    0.0000 N   0  0  0  0  0  0  0  0  0  0  0  0
    8.0225   -4.0565    0.0000 C   0  0  0  0  0  0  0  0  0  0  0  0
    7.3069   -4.4672    0.0000 O   0  0  0  0  0  0  0  0  0  0  0  0
    5.9597    1.7564    0.0000 C   0  0  0  0  0  0  0  0  0  0  0  0
    5.1214    2.5606    0.0000 C   0  0  0  0  0  0  0  0  0  0  0  0
    4.3913    2.9638    0.0000 O   0  0  0  0  0  0  0  0  0  0  0  0
    5.0980    3.3894    0.0000 C   0  0  0  0  0  0  0  0  0  0  0  0
    2.9782    2.1139    0.0000 O   0  0  0  0  0  0  0  0  0  0  0  0
    3.0051    0.4600    0.0000 O   0  0  0  0  0  0  0  0  0  0  0  0
    4.4563   -1.9885    0.0000 C   0  0  0  0  0  0  0  0  0  0  0  0
    8.7359   -4.4708    0.0000 C   0  0  0  0  0  0  0  0  0  0  0  0
    8.7338   -5.2958    0.0000 C   0  0  0  0  0  0  0  0  0  0  0  0
    9.4473   -5.7101    0.0000 C   0  0  0  0  0  0  0  0  0  0  0  0
    9.4414   -6.5326    0.0000 C   0  0  0  0  0  0  0  0  0  0  0  0
   10.1540   -6.9468    0.0000 C   0  0  0  0  0  0  0  0  0  0  0  0
   10.8705   -6.5360    0.0000 C   0  0  0  0  0  0  0  0  0  0  0  0
   10.8699   -5.7068    0.0000 C   0  0  0  0  0  0  0  0  0  0  0  0
   10.1568   -5.2963    0.0000 C   0  0  0  0  0  0  0  0  0  0  0  0
  8  9  1  0  0  0  0
 17 18  1  0  0  0  0
  1  6  1  0  0  0  0
 15 19  2  0  0  0  0
  3  2  1  0  0  0  0
 16 20  1  0  0  0  0
  8 10  2  0  0  0  0
 20 21  1  0  0  0  0
  9 13  2  0  0  0  0
 21 22  2  0  0  0  0
 11 10  1  0  0  0  0
  1 23  1  0  0  0  0
 11 12  2  0  0  0  0
  1 24  1  0  0  0  0
  3  4  1  0  0  0  0
  2 25  1  1  0  0  0
 12 13  1  0  0  0  0
 25 26  1  0  0  0  0
  4  5  1  0  0  0  0
  3 27  1  6  0  0  0
  5  6  1  0  0  0  0
  4 28  1  6  0  0  0
  9 29  1  0  0  0  0
  5  7  1  1  0  0  0
 21 30  1  0  0  0  0
  2  1  1  0  0  0  0
 30 31  2  0  0  0  0
  7  8  1  0  0  0  0
 31 32  1  0  0  0  0
 12 17  1  0  0  0  0
 32 33  2  0  0  0  0
 13 14  1  0  0  0  0
 33 34  1  0  0  0  0
 14 15  1  0  0  0  0
 34 35  2  0  0  0  0
 15 16  1  0  0  0  0
 35 36  1  0  0  0  0
 16 17  2  0  0  0  0
 36 37  2  0  0  0  0
 37 32  1  0  0  0  0
M  END
> <From> 
www.bindingDB.org

> <BindingDB Reactant_set_id>
50607710

> <Ligand InChI>
InChI=1S/C27H29NO9/c1-14-17(35-26-22(32)21(31)24(34-4)27(2,3)37-26)12-11-16-20(30)19(25(33)36-23(14)16)28-18(29)13-10-15-8-6-5-7-9-15/h5-13,21-22,24,26,30-32H,1-4H3,(H,28,29)/b13-10+/t21-,22+,24+,26+/m0/s1

> <Ligand InChI Key>
XIBZWQXVYROCKO-DQPYZKGWSA-N

> <BindingDB MonomerID>
50330320

> <BindingDB Ligand Name>
CHEMBL1276307::N-(7-((2R,3R,4S,5R)-3,4-dihydroxy-5-methoxy-6,6-dimethyltetrahydro-2H-pyran-2-yloxy)-4-hydroxy-8-methyl-2-oxo-2H-chromen-3-yl)cinnamamide

> <Target Name Assigned by Curator or DataSource>
DNA Gyrase Subunit B

> <Target Source Organism According to Curator or DataSource>
Escherichia coli

> <Ki (nM)>


> <IC50 (nM)>
>10000

> <Kd (nM)>


> <EC50 (nM)>


> <kon (M-1-s-1)>


> <koff (s-1)>


> <pH>


> <Temp C>


> <Curation/DataSource>
ChEMBL

> <Article DOI>
10.1128/AAC.01235-07

> <PMID>
18347114

> <PubChem AID>


> <Patent Number>


> <Authors>
Anderle, C; Stieger, M; Burrell, M; Reinelt, S; Maxwell, A; Page, M; Heide, L

> <Institution>
Universit&#228;t T&#252;bingen

> <Link to Ligand in BindingDB>
http://www.bindingdb.org/bind/chemsearch/marvin/MolStructure.jsp?monomerid=50330320

> <Link to Ligand-Target Pair in BindingDB>
http://www.bindingdb.org/jsp/dbsearch/PrimarySearch_ki.jsp?energyterm=kJ/mole&tag=pol&polymerid=2630&target=DNA+Gyrase+Subunit+B&column=ki&startPg=0&Increment=50&submit=Search

> <Link to Ligand-Target Pair in BindingDB>
http://www.bindingdb.org/jsp/dbsearch/PrimarySearch_ki.jsp?energyterm=kJ/mole&tag=r21&monomerid=50330320&enzyme=DNA+Gyrase+Subunit+B&column=ki&startPg=0&Increment=50&submit=Search

> <Ligand HET ID in PDB>


> <PDB ID(s) for Ligand-Target Complex>


> <PubChem CID>
54729449

> <PubChem SID>
123109435

> <ChEBI ID of Ligand>


> <ChEMBL ID of Ligand>
CHEMBL1276307

> <DrugBank ID of Ligand>


> <IUPHAR_GRAC ID of Ligand>


> <KEGG ID of Ligand>


> <ZINC ID of Ligand>
ZINC64447983

> <Number of Protein Chains in Target (>1 implies a multichain complex)>
1

> <BindingDB Target Chain Sequence>
MSNSYDSSSIKVLKGLDAVRKRPGMYIGDTDDGTGLHHMVFEVVDNAIDEALAGHCKEII
VTIHADNSVSVQDDGRGIPTGIHPEEGVSAAEVIMTVLHAGGKFDDNSYKVSGGLHGVGV
SVVNALSQKLELVIQREGKIHRQIYEHGVPQAPLAVTGETEKTGTMVRFWPSLETFTNVT
EFEYEILAKRLRELSFLNSGVSIRLRDKRDGKEDHFHYEGGIKAFVEYLNKNKTPIHPNI
FYFSTEKDGIGVEVALQWNDGFQENIYCFTNNIPQRDGGTHLAGFRAAMTRTLNAYMDKE
GYSKKAKVSATGDDAREGLIAVVSVKVPDPKFSSQTKDKLVSSEVKSAVEQQMNELLAEY
LLENPTDAKIVVGKIIDAARAREAARRAREMTRRKGALDLAGLPGKLADCQERDPALSEL
YLVEGDSAGGSAKQGRNRKNQAILPLKGKILNVEKARFDKMLSSQEVATLITALGCGIGR
DEYNPDKLRYHSIIIMTDADVDGSHIRTLLLTFFYRQMPEIVERGHVYIAQPPLYKVKKG
KQEQYIKDDEAMDQYQISIALDGATLHTNASAPALAGEALEKLVSEYNATQKMINRMERR
YPKAMLKELIYQPTLTEADLSDEQTVTRWVNALVSELNDKEQHGSQWKFDVHTNAEQNLF
EPIVRVRTHGVDTDYPLDHEFITGGEYRRICTLGEKLRGLLEEDAFIERGERRQPVASFE
QALDWLVKESRRGLSIQRYKGLGEMNPEQLWETTMDPESRRMLRVTVKDAIAADQLFTTL
MGDAVEPRRAFIEENALKAANIDI

> <PDB ID(s) of Target Chain>
1KZN,3G7E,3NUH,4DUH,4HYP,4KFG,4PRV,4PRX,4PU9,4WUB,4WUC,4WUD,4XTJ,4ZVI,5L3J,5MMN,5MMO,5MMP,5Z4H,5Z4O,5Z9B,5Z9E,5Z9F,5Z9L,5Z9M,5Z9N,5Z9Q,6ENG,6F86,6F8J,6F94,6F96

> <UniProt (SwissProt) Recommended Name of Target Chain>
DNA gyrase subunit B

> <UniProt (SwissProt) Entry Name of Target Chain>
GYRB_ECOLI

> <UniProt (SwissProt) Primary ID of Target Chain>
P0AES6

> <UniProt (SwissProt) Secondary ID(s) of Target Chain>
O08438,P06982,Q2M811

> <UniProt (SwissProt) Alternative ID(s) of Target Chain>


> <UniProt (TrEMBL) Submitted Name of Target Chain>


> <UniProt (TrEMBL) Entry Name of Target Chain>


> <UniProt (TrEMBL) Primary ID of Target Chain>


> <UniProt (TrEMBL) Secondary ID(s) of Target Chain>


> <UniProt (TrEMBL) Alternative ID(s) of Target Chain>


$$$$

  Mrv0541 11231413392D          

 39 42  0  0  0  0            999 V2000
   -2.5402   -7.9836    0.0000 C   0  0  0  0  0  0  0  0  0  0  0  0
   -3.2661   -7.5820    0.0000 C   0  0  1  0  0  0  0  0  0  0  0  0
   -3.9728   -8.0076    0.0000 C   0  0  2  0  0  0  0  0  0  0  0  0
   -3.9599   -8.8365    0.0000 C   0  0  2  0  0  0  0  0  0  0  0  0
   -3.2340   -9.2379    0.0000 C   0  0  1  0  0  0  0  0  0  0  0  0
   -2.5210   -8.8107    0.0000 O   0  0  0  0  0  0  0  0  0  0  0  0
   -3.2197  -10.0628    0.0000 O   0  0  0  0  0  0  0  0  0  0  0  0
   -2.5000  -10.4741    0.0000 C   0  0  0  0  0  0  0  0  0  0  0  0
   -2.5007  -11.2986    0.0000 C   0  0  0  0  0  0  0  0  0  0  0  0
   -1.7852  -10.0598    0.0000 C   0  0  0  0  0  0  0  0  0  0  0  0
   -1.0706  -10.4776    0.0000 C   0  0  0  0  0  0  0  0  0  0  0  0
   -1.0725  -11.3023    0.0000 C   0  0  0  0  0  0  0  0  0  0  0  0
   -1.7878  -11.7138    0.0000 C   0  0  0  0  0  0  0  0  0  0  0  0
   -1.7890  -12.5345    0.0000 O   0  0  0  0  0  0  0  0  0  0  0  0
   -1.0767  -12.9498    0.0000 C   0  0  0  0  0  0  0  0  0  0  0  0
   -0.3613  -12.5383    0.0000 C   0  0  0  0  0  0  0  0  0  0  0  0
   -0.3585  -11.7114    0.0000 C   0  0  0  0  0  0  0  0  0  0  0  0
    0.3561  -11.2990    0.0000 O   0  0  0  0  0  0  0  0  0  0  0  0
   -1.0790  -13.7748    0.0000 O   0  0  0  0  0  0  0  0  0  0  0  0
    0.3521  -12.9526    0.0000 N   0  0  0  0  0  0  0  0  0  0  0  0
    0.3500  -13.7776    0.0000 C   0  0  0  0  0  0  0  0  0  0  0  0
   -0.3655  -14.1882    0.0000 O   0  0  0  0  0  0  0  0  0  0  0  0
    1.0635  -14.1918    0.0000 C   0  0  0  0  0  0  0  0  0  0  0  0
    1.0585  -15.0159    0.0000 C   0  0  0  0  0  0  0  0  0  0  0  0
    1.7711  -15.4302    0.0000 C   0  0  0  0  0  0  0  0  0  0  0  0
    2.4875  -15.0194    0.0000 C   0  0  0  0  0  0  0  0  0  0  0  0
    2.4869  -14.1902    0.0000 C   0  0  0  0  0  0  0  0  0  0  0  0
    1.7738  -13.7796    0.0000 C   0  0  0  0  0  0  0  0  0  0  0  0
    3.2015  -15.4327    0.0000 O   0  0  0  0  0  0  0  0  0  0  0  0
    3.2010  -13.7769    0.0000 C   0  0  0  0  0  0  0  0  0  0  0  0
   -1.7127   -7.9647    0.0000 C   0  0  0  0  0  0  0  0  0  0  0  0
   -2.5510   -7.1605    0.0000 C   0  0  0  0  0  0  0  0  0  0  0  0
   -3.2811   -6.7573    0.0000 O   0  0  0  0  0  0  0  0  0  0  0  0
   -2.5744   -6.3317    0.0000 C   0  0  0  0  0  0  0  0  0  0  0  0
   -4.6942   -7.6072    0.0000 O   0  0  0  0  0  0  0  0  0  0  0  0
   -4.6673   -9.2610    0.0000 O   0  0  0  0  0  0  0  0  0  0  0  0
   -3.2161  -11.7095    0.0000 C   0  0  0  0  0  0  0  0  0  0  0  0
    3.9159  -14.1887    0.0000 C   0  0  0  0  0  0  0  0  0  0  0  0
    4.6299  -13.7755    0.0000 C   0  0  0  0  0  0  0  0  0  0  0  0
  1  6  1  0  0  0  0
 15 19  2  0  0  0  0
  3  2  1  0  0  0  0
 16 20  1  0  0  0  0
  8 10  2  0  0  0  0
 20 21  1  0  0  0  0
  9 13  2  0  0  0  0
 21 22  2  0  0  0  0
 11 10  1  0  0  0  0
 21 23  1  0  0  0  0
 11 12  2  0  0  0  0
 23 24  2  0  0  0  0
  3  4  1  0  0  0  0
 24 25  1  0  0  0  0
 12 13  1  0  0  0  0
 25 26  2  0  0  0  0
  4  5  1  0  0  0  0
 26 27  1  0  0  0  0
  5  6  1  0  0  0  0
 27 28  2  0  0  0  0
 28 23  1  0  0  0  0
 26 29  1  0  0  0  0
  5  7  1  1  0  0  0
 27 30  1  0  0  0  0
  2  1  1  0  0  0  0
  1 31  1  0  0  0  0
  7  8  1  0  0  0  0
  1 32  1  0  0  0  0
 12 17  1  0  0  0  0
  2 33  1  1  0  0  0
 13 14  1  0  0  0  0
 33 34  1  0  0  0  0
 14 15  1  0  0  0  0
  3 35  1  6  0  0  0
 15 16  1  0  0  0  0
  4 36  1  6  0  0  0
 16 17  2  0  0  0  0
  9 37  1  0  0  0  0
  8  9  1  0  0  0  0
 30 38  1  0  0  0  0
 17 18  1  0  0  0  0
 38 39  1  0  0  0  0
M  END
> <From> 
www.bindingDB.org

> <BindingDB Reactant_set_id>
50607713

> <Ligand InChI>
InChI=1S/C28H33NO10/c1-6-7-14-12-15(8-10-17(14)30)25(34)29-19-20(31)16-9-11-18(13(2)23(16)38-26(19)35)37-27-22(33)21(32)24(36-5)28(3,4)39-27/h8-12,21-22,24,27,30-33H,6-7H2,1-5H3,(H,29,34)/t21-,22+,24+,27+/m0/s1

> <Ligand InChI Key>
RSLKARIZRNNERP-CXTNQITHSA-N

> <BindingDB MonomerID>
50330323

> <BindingDB Ligand Name>
CHEMBL1276304::N-(7-((2R,3R,4S,5R)-3,4-dihydroxy-5-methoxy-6,6-dimethyltetrahydro-2H-pyran-2-yloxy)-4-hydroxy-8-methyl-2-oxo-2H-chromen-3-yl)-4-hydroxy-3-propylbenzamide

> <Target Name Assigned by Curator or DataSource>
DNA Gyrase Subunit B

> <Target Source Organism According to Curator or DataSource>
Escherichia coli

> <Ki (nM)>


> <IC50 (nM)>
>10000

> <Kd (nM)>


> <EC50 (nM)>


> <kon (M-1-s-1)>


> <koff (s-1)>


> <pH>


> <Temp C>


> <Curation/DataSource>
ChEMBL

> <Article DOI>
10.1128/AAC.01235-07

> <PMID>
18347114

> <PubChem AID>


> <Patent Number>


> <Authors>
Anderle, C; Stieger, M; Burrell, M; Reinelt, S; Maxwell, A; Page, M; Heide, L

> <Institution>
Universit&#228;t T&#252;bingen

> <Link to Ligand in BindingDB>
http://www.bindingdb.org/bind/chemsearch/marvin/MolStructure.jsp?monomerid=50330323

> <Link to Ligand-Target Pair in BindingDB>
http://www.bindingdb.org/jsp/dbsearch/PrimarySearch_ki.jsp?energyterm=kJ/mole&tag=pol&polymerid=2630&target=DNA+Gyrase+Subunit+B&column=ki&startPg=0&Increment=50&submit=Search

> <Link to Ligand-Target Pair in BindingDB>
http://www.bindingdb.org/jsp/dbsearch/PrimarySearch_ki.jsp?energyterm=kJ/mole&tag=r21&monomerid=50330323&enzyme=DNA+Gyrase+Subunit+B&column=ki&startPg=0&Increment=50&submit=Search

> <Ligand HET ID in PDB>


> <PDB ID(s) for Ligand-Target Complex>


> <PubChem CID>
54729448

> <PubChem SID>
123109438

> <ChEBI ID of Ligand>


> <ChEMBL ID of Ligand>
CHEMBL1276304

> <DrugBank ID of Ligand>


> <IUPHAR_GRAC ID of Ligand>


> <KEGG ID of Ligand>


> <ZINC ID of Ligand>
ZINC64448936

> <Number of Protein Chains in Target (>1 implies a multichain complex)>
1

> <BindingDB Target Chain Sequence>
MSNSYDSSSIKVLKGLDAVRKRPGMYIGDTDDGTGLHHMVFEVVDNAIDEALAGHCKEII
VTIHADNSVSVQDDGRGIPTGIHPEEGVSAAEVIMTVLHAGGKFDDNSYKVSGGLHGVGV
SVVNALSQKLELVIQREGKIHRQIYEHGVPQAPLAVTGETEKTGTMVRFWPSLETFTNVT
EFEYEILAKRLRELSFLNSGVSIRLRDKRDGKEDHFHYEGGIKAFVEYLNKNKTPIHPNI
FYFSTEKDGIGVEVALQWNDGFQENIYCFTNNIPQRDGGTHLAGFRAAMTRTLNAYMDKE
GYSKKAKVSATGDDAREGLIAVVSVKVPDPKFSSQTKDKLVSSEVKSAVEQQMNELLAEY
LLENPTDAKIVVGKIIDAARAREAARRAREMTRRKGALDLAGLPGKLADCQERDPALSEL
YLVEGDSAGGSAKQGRNRKNQAILPLKGKILNVEKARFDKMLSSQEVATLITALGCGIGR
DEYNPDKLRYHSIIIMTDADVDGSHIRTLLLTFFYRQMPEIVERGHVYIAQPPLYKVKKG
KQEQYIKDDEAMDQYQISIALDGATLHTNASAPALAGEALEKLVSEYNATQKMINRMERR
YPKAMLKELIYQPTLTEADLSDEQTVTRWVNALVSELNDKEQHGSQWKFDVHTNAEQNLF
EPIVRVRTHGVDTDYPLDHEFITGGEYRRICTLGEKLRGLLEEDAFIERGERRQPVASFE
QALDWLVKESRRGLSIQRYKGLGEMNPEQLWETTMDPESRRMLRVTVKDAIAADQLFTTL
MGDAVEPRRAFIEENALKAANIDI

> <PDB ID(s) of Target Chain>
1KZN,3G7E,3NUH,4DUH,4HYP,4KFG,4PRV,4PRX,4PU9,4WUB,4WUC,4WUD,4XTJ,4ZVI,5L3J,5MMN,5MMO,5MMP,5Z4H,5Z4O,5Z9B,5Z9E,5Z9F,5Z9L,5Z9M,5Z9N,5Z9Q,6ENG,6F86,6F8J,6F94,6F96

> <UniProt (SwissProt) Recommended Name of Target Chain>
DNA gyrase subunit B

> <UniProt (SwissProt) Entry Name of Target Chain>
GYRB_ECOLI

> <UniProt (SwissProt) Primary ID of Target Chain>
P0AES6

> <UniProt (SwissProt) Secondary ID(s) of Target Chain>
O08438,P06982,Q2M811

> <UniProt (SwissProt) Alternative ID(s) of Target Chain>


> <UniProt (TrEMBL) Submitted Name of Target Chain>


> <UniProt (TrEMBL) Entry Name of Target Chain>


> <UniProt (TrEMBL) Primary ID of Target Chain>


> <UniProt (TrEMBL) Secondary ID(s) of Target Chain>


> <UniProt (TrEMBL) Alternative ID(s) of Target Chain>


$$$$

  Mrv0541 11231413392D          

 35 38  0  0  0  0            999 V2000
   11.5077  -14.3087    0.0000 C   0  0  0  0  0  0  0  0  0  0  0  0
   10.7817  -13.9071    0.0000 C   0  0  1  0  0  0  0  0  0  0  0  0
   10.0749  -14.3327    0.0000 C   0  0  2  0  0  0  0  0  0  0  0  0
   10.0878  -15.1615    0.0000 C   0  0  2  0  0  0  0  0  0  0  0  0
   10.8138  -15.5630    0.0000 C   0  0  1  0  0  0  0  0  0  0  0  0
   11.5268  -15.1358    0.0000 O   0  0  0  0  0  0  0  0  0  0  0  0
   10.8281  -16.3879    0.0000 O   0  0  0  0  0  0  0  0  0  0  0  0
   11.5478  -16.7992    0.0000 C   0  0  0  0  0  0  0  0  0  0  0  0
   11.5470  -17.6237    0.0000 C   0  0  0  0  0  0  0  0  0  0  0  0
   12.2627  -16.3849    0.0000 C   0  0  0  0  0  0  0  0  0  0  0  0
   12.9771  -16.8027    0.0000 C   0  0  0  0  0  0  0  0  0  0  0  0
   12.9753  -17.6274    0.0000 C   0  0  0  0  0  0  0  0  0  0  0  0
   12.2601  -18.0389    0.0000 C   0  0  0  0  0  0  0  0  0  0  0  0
   12.2588  -18.8596    0.0000 O   0  0  0  0  0  0  0  0  0  0  0  0
   12.9712  -19.2749    0.0000 C   0  0  0  0  0  0  0  0  0  0  0  0
   13.6864  -18.8634    0.0000 C   0  0  0  0  0  0  0  0  0  0  0  0
   13.6894  -18.0364    0.0000 C   0  0  0  0  0  0  0  0  0  0  0  0
   14.4038  -17.6241    0.0000 O   0  0  0  0  0  0  0  0  0  0  0  0
   12.9688  -20.0999    0.0000 O   0  0  0  0  0  0  0  0  0  0  0  0
   14.3999  -19.2777    0.0000 N   0  0  0  0  0  0  0  0  0  0  0  0
   14.3978  -20.1027    0.0000 C   0  0  0  0  0  0  0  0  0  0  0  0
   13.6823  -20.5133    0.0000 O   0  0  0  0  0  0  0  0  0  0  0  0
   15.1112  -20.5169    0.0000 C   0  0  0  0  0  0  0  0  0  0  0  0
   15.1063  -21.3410    0.0000 C   0  0  0  0  0  0  0  0  0  0  0  0
   15.8189  -21.7553    0.0000 C   0  0  0  0  0  0  0  0  0  0  0  0
   16.5354  -21.3445    0.0000 C   0  0  0  0  0  0  0  0  0  0  0  0
   16.5348  -20.5153    0.0000 C   0  0  0  0  0  0  0  0  0  0  0  0
   15.8216  -20.1047    0.0000 C   0  0  0  0  0  0  0  0  0  0  0  0
   12.3352  -14.2898    0.0000 C   0  0  0  0  0  0  0  0  0  0  0  0
   11.4968  -13.4856    0.0000 C   0  0  0  0  0  0  0  0  0  0  0  0
   10.7666  -13.0823    0.0000 O   0  0  0  0  0  0  0  0  0  0  0  0
   11.4733  -12.6567    0.0000 C   0  0  0  0  0  0  0  0  0  0  0  0
    9.3536  -13.9323    0.0000 O   0  0  0  0  0  0  0  0  0  0  0  0
    9.3805  -15.5861    0.0000 O   0  0  0  0  0  0  0  0  0  0  0  0
   10.8317  -18.0346    0.0000 C   0  0  0  0  0  0  0  0  0  0  0  0
 15 16  1  0  0  0  0
 16 17  2  0  0  0  0
  8  9  1  0  0  0  0
 17 18  1  0  0  0  0
  1  6  1  0  0  0  0
 15 19  2  0  0  0  0
  3  2  1  0  0  0  0
 16 20  1  0  0  0  0
  8 10  2  0  0  0  0
 20 21  1  0  0  0  0
  9 13  2  0  0  0  0
 21 22  2  0  0  0  0
 11 10  1  0  0  0  0
 21 23  1  0  0  0  0
 11 12  2  0  0  0  0
 23 24  2  0  0  0  0
  3  4  1  0  0  0  0
 24 25  1  0  0  0  0
 12 13  1  0  0  0  0
 25 26  2  0  0  0  0
  4  5  1  0  0  0  0
 26 27  1  0  0  0  0
  5  6  1  0  0  0  0
 27 28  2  0  0  0  0
 28 23  1  0  0  0  0
  1 29  1  0  0  0  0
  5  7  1  1  0  0  0
  1 30  1  0  0  0  0
  2  1  1  0  0  0  0
  2 31  1  1  0  0  0
  7  8  1  0  0  0  0
 31 32  1  0  0  0  0
 12 17  1  0  0  0  0
  3 33  1  6  0  0  0
 13 14  1  0  0  0  0
  4 34  1  6  0  0  0
 14 15  1  0  0  0  0
  9 35  1  0  0  0  0
M  END
> <From> 
www.bindingDB.org

> <BindingDB Reactant_set_id>
50607711

> <Ligand InChI>
InChI=1S/C25H27NO9/c1-12-15(33-24-19(29)18(28)21(32-4)25(2,3)35-24)11-10-14-17(27)16(23(31)34-20(12)14)26-22(30)13-8-6-5-7-9-13/h5-11,18-19,21,24,27-29H,1-4H3,(H,26,30)/t18-,19+,21+,24+/m0/s1

> <Ligand InChI Key>
QQRDIWZKGLBLEK-YWQGAKJTSA-N

> <BindingDB MonomerID>
50330321

> <BindingDB Ligand Name>
CHEMBL1276306::N-(7-((2R,3R,4S,5R)-3,4-dihydroxy-5-methoxy-6,6-dimethyltetrahydro-2H-pyran-2-yloxy)-4-hydroxy-8-methyl-2-oxo-2H-chromen-3-yl)benzamide

> <Target Name Assigned by Curator or DataSource>
DNA Gyrase Subunit B

> <Target Source Organism According to Curator or DataSource>
Escherichia coli

> <Ki (nM)>


> <IC50 (nM)>
>10000

> <Kd (nM)>


> <EC50 (nM)>


> <kon (M-1-s-1)>


> <koff (s-1)>


> <pH>


> <Temp C>


> <Curation/DataSource>
ChEMBL

> <Article DOI>
10.1128/AAC.01235-07

> <PMID>
18347114

> <PubChem AID>


> <Patent Number>


> <Authors>
Anderle, C; Stieger, M; Burrell, M; Reinelt, S; Maxwell, A; Page, M; Heide, L

> <Institution>
Universit&#228;t T&#252;bingen

> <Link to Ligand in BindingDB>
http://www.bindingdb.org/bind/chemsearch/marvin/MolStructure.jsp?monomerid=50330321

> <Link to Ligand-Target Pair in BindingDB>
http://www.bindingdb.org/jsp/dbsearch/PrimarySearch_ki.jsp?energyterm=kJ/mole&tag=pol&polymerid=2630&target=DNA+Gyrase+Subunit+B&column=ki&startPg=0&Increment=50&submit=Search

> <Link to Ligand-Target Pair in BindingDB>
http://www.bindingdb.org/jsp/dbsearch/PrimarySearch_ki.jsp?energyterm=kJ/mole&tag=r21&monomerid=50330321&enzyme=DNA+Gyrase+Subunit+B&column=ki&startPg=0&Increment=50&submit=Search

> <Ligand HET ID in PDB>


> <PDB ID(s) for Ligand-Target Complex>


> <PubChem CID>
54732408

> <PubChem SID>
123109436

> <ChEBI ID of Ligand>


> <ChEMBL ID of Ligand>
CHEMBL1276306

> <DrugBank ID of Ligand>


> <IUPHAR_GRAC ID of Ligand>


> <KEGG ID of Ligand>


> <ZINC ID of Ligand>
ZINC64446670

> <Number of Protein Chains in Target (>1 implies a multichain complex)>
1

> <BindingDB Target Chain Sequence>
MSNSYDSSSIKVLKGLDAVRKRPGMYIGDTDDGTGLHHMVFEVVDNAIDEALAGHCKEII
VTIHADNSVSVQDDGRGIPTGIHPEEGVSAAEVIMTVLHAGGKFDDNSYKVSGGLHGVGV
SVVNALSQKLELVIQREGKIHRQIYEHGVPQAPLAVTGETEKTGTMVRFWPSLETFTNVT
EFEYEILAKRLRELSFLNSGVSIRLRDKRDGKEDHFHYEGGIKAFVEYLNKNKTPIHPNI
FYFSTEKDGIGVEVALQWNDGFQENIYCFTNNIPQRDGGTHLAGFRAAMTRTLNAYMDKE
GYSKKAKVSATGDDAREGLIAVVSVKVPDPKFSSQTKDKLVSSEVKSAVEQQMNELLAEY
LLENPTDAKIVVGKIIDAARAREAARRAREMTRRKGALDLAGLPGKLADCQERDPALSEL
YLVEGDSAGGSAKQGRNRKNQAILPLKGKILNVEKARFDKMLSSQEVATLITALGCGIGR
DEYNPDKLRYHSIIIMTDADVDGSHIRTLLLTFFYRQMPEIVERGHVYIAQPPLYKVKKG
KQEQYIKDDEAMDQYQISIALDGATLHTNASAPALAGEALEKLVSEYNATQKMINRMERR
YPKAMLKELIYQPTLTEADLSDEQTVTRWVNALVSELNDKEQHGSQWKFDVHTNAEQNLF
EPIVRVRTHGVDTDYPLDHEFITGGEYRRICTLGEKLRGLLEEDAFIERGERRQPVASFE
QALDWLVKESRRGLSIQRYKGLGEMNPEQLWETTMDPESRRMLRVTVKDAIAADQLFTTL
MGDAVEPRRAFIEENALKAANIDI

> <PDB ID(s) of Target Chain>
1KZN,3G7E,3NUH,4DUH,4HYP,4KFG,4PRV,4PRX,4PU9,4WUB,4WUC,4WUD,4XTJ,4ZVI,5L3J,5MMN,5MMO,5MMP,5Z4H,5Z4O,5Z9B,5Z9E,5Z9F,5Z9L,5Z9M,5Z9N,5Z9Q,6ENG,6F86,6F8J,6F94,6F96

> <UniProt (SwissProt) Recommended Name of Target Chain>
DNA gyrase subunit B

> <UniProt (SwissProt) Entry Name of Target Chain>
GYRB_ECOLI

> <UniProt (SwissProt) Primary ID of Target Chain>
P0AES6

> <UniProt (SwissProt) Secondary ID(s) of Target Chain>
O08438,P06982,Q2M811

> <UniProt (SwissProt) Alternative ID(s) of Target Chain>


> <UniProt (TrEMBL) Submitted Name of Target Chain>


> <UniProt (TrEMBL) Entry Name of Target Chain>


> <UniProt (TrEMBL) Primary ID of Target Chain>


> <UniProt (TrEMBL) Secondary ID(s) of Target Chain>


> <UniProt (TrEMBL) Alternative ID(s) of Target Chain>


$$$$

  Mrv0541 11231413392D          

 38 41  0  0  0  0            999 V2000
   10.8980  -22.4843    0.0000 O   0  0  0  0  0  0  0  0  0  0  0  0
   13.0288  -21.2058    0.0000 C   0  0  0  0  0  0  0  0  0  0  0  0
   12.3030  -20.8043    0.0000 C   0  0  1  0  0  0  0  0  0  0  0  0
   11.5961  -21.2297    0.0000 C   0  0  2  0  0  0  0  0  0  0  0  0
   11.6091  -22.0585    0.0000 C   0  0  2  0  0  0  0  0  0  0  0  0
   12.3350  -22.4601    0.0000 C   0  0  1  0  0  0  0  0  0  0  0  0
   13.0480  -22.0328    0.0000 O   0  0  0  0  0  0  0  0  0  0  0  0
   12.3493  -23.2850    0.0000 O   0  0  0  0  0  0  0  0  0  0  0  0
   13.0690  -23.6963    0.0000 C   0  0  0  0  0  0  0  0  0  0  0  0
   13.0683  -24.5207    0.0000 C   0  0  0  0  0  0  0  0  0  0  0  0
   13.7838  -23.2820    0.0000 C   0  0  0  0  0  0  0  0  0  0  0  0
   14.4982  -23.6997    0.0000 C   0  0  0  0  0  0  0  0  0  0  0  0
   14.4965  -24.5243    0.0000 C   0  0  0  0  0  0  0  0  0  0  0  0
   13.7812  -24.9359    0.0000 C   0  0  0  0  0  0  0  0  0  0  0  0
   13.7800  -25.7565    0.0000 O   0  0  0  0  0  0  0  0  0  0  0  0
   14.4923  -26.1718    0.0000 C   0  0  0  0  0  0  0  0  0  0  0  0
   15.2076  -25.7603    0.0000 C   0  0  0  0  0  0  0  0  0  0  0  0
   15.2105  -24.9335    0.0000 C   0  0  0  0  0  0  0  0  0  0  0  0
   12.3529  -24.9316    0.0000 C   0  0  0  0  0  0  0  0  0  0  0  0
   15.9250  -24.5210    0.0000 O   0  0  0  0  0  0  0  0  0  0  0  0
   14.4900  -26.9968    0.0000 O   0  0  0  0  0  0  0  0  0  0  0  0
   15.9209  -26.1746    0.0000 N   0  0  0  0  0  0  0  0  0  0  0  0
   15.9189  -26.9995    0.0000 C   0  0  0  0  0  0  0  0  0  0  0  0
   15.2034  -27.4103    0.0000 O   0  0  0  0  0  0  0  0  0  0  0  0
   16.6323  -27.4138    0.0000 C   0  0  0  0  0  0  0  0  0  0  0  0
   16.6273  -28.2380    0.0000 C   0  0  0  0  0  0  0  0  0  0  0  0
   17.3400  -28.6521    0.0000 C   0  0  0  0  0  0  0  0  0  0  0  0
   18.0564  -28.2414    0.0000 C   0  0  0  0  0  0  0  0  0  0  0  0
   18.0558  -27.4121    0.0000 C   0  0  0  0  0  0  0  0  0  0  0  0
   17.3426  -27.0017    0.0000 C   0  0  0  0  0  0  0  0  0  0  0  0
   18.7704  -28.6547    0.0000 O   0  0  0  0  0  0  0  0  0  0  0  0
   18.7698  -26.9990    0.0000 C   0  0  0  0  0  0  0  0  0  0  0  0
   13.8563  -21.1868    0.0000 C   0  0  0  0  0  0  0  0  0  0  0  0
   13.0179  -20.3827    0.0000 C   0  0  0  0  0  0  0  0  0  0  0  0
   12.2878  -19.9794    0.0000 O   0  0  0  0  0  0  0  0  0  0  0  0
   12.9946  -19.5538    0.0000 C   0  0  0  0  0  0  0  0  0  0  0  0
   10.8749  -20.8295    0.0000 O   0  0  0  0  0  0  0  0  0  0  0  0
   17.3374  -29.4771    0.0000 C   0  0  0  0  0  0  0  0  0  0  0  0
  9 10  1  0  0  0  0
 10 19  1  0  0  0  0
  2  7  1  0  0  0  0
 18 20  1  0  0  0  0
  4  3  1  0  0  0  0
 16 21  2  0  0  0  0
  9 11  2  0  0  0  0
 17 22  1  0  0  0  0
 10 14  2  0  0  0  0
 22 23  1  0  0  0  0
 12 11  1  0  0  0  0
 23 24  2  0  0  0  0
 12 13  2  0  0  0  0
 23 25  1  0  0  0  0
  4  5  1  0  0  0  0
 25 26  2  0  0  0  0
 13 14  1  0  0  0  0
 26 27  1  0  0  0  0
  5  6  1  0  0  0  0
 27 28  2  0  0  0  0
  6  7  1  0  0  0  0
 28 29  1  0  0  0  0
 29 30  2  0  0  0  0
 30 25  1  0  0  0  0
  6  8  1  1  0  0  0
 28 31  1  0  0  0  0
  3  2  1  0  0  0  0
 29 32  1  0  0  0  0
  8  9  1  0  0  0  0
  2 33  1  0  0  0  0
 13 18  1  0  0  0  0
  2 34  1  0  0  0  0
 14 15  1  0  0  0  0
  3 35  1  1  0  0  0
 15 16  1  0  0  0  0
 35 36  1  0  0  0  0
 16 17  1  0  0  0  0
  4 37  1  6  0  0  0
  5  1  1  6  0  0  0
 17 18  2  0  0  0  0
 27 38  1  0  0  0  0
M  END
> <From> 
www.bindingDB.org

> <BindingDB Reactant_set_id>
50607662

> <Ligand InChI>
InChI=1S/C27H31NO10/c1-11-9-14(10-12(2)18(11)29)24(33)28-17-19(30)15-7-8-16(13(3)22(15)37-25(17)34)36-26-21(32)20(31)23(35-6)27(4,5)38-26/h7-10,20-21,23,26,29-32H,1-6H3,(H,28,33)/t20-,21+,23+,26+/m0/s1

> <Ligand InChI Key>
WBAURESZKLTLSD-DCDYHQBJSA-N

> <BindingDB MonomerID>
50330296

> <BindingDB Ligand Name>
CHEMBL1276309::N-(7-((2R,3R,4S,5R)-3,4-dihydroxy-5-methoxy-6,6-dimethyltetrahydro-2H-pyran-2-yloxy)-4-hydroxy-8-methyl-2-oxo-2H-chromen-3-yl)-4-hydroxy-3,5-dimethylbenzamide

> <Target Name Assigned by Curator or DataSource>
DNA Gyrase Subunit B

> <Target Source Organism According to Curator or DataSource>
Escherichia coli

> <Ki (nM)>


> <IC50 (nM)>
>10000

> <Kd (nM)>


> <EC50 (nM)>


> <kon (M-1-s-1)>


> <koff (s-1)>


> <pH>


> <Temp C>


> <Curation/DataSource>
ChEMBL

> <Article DOI>
10.1128/AAC.01235-07

> <PMID>
18347114

> <PubChem AID>


> <Patent Number>


> <Authors>
Anderle, C; Stieger, M; Burrell, M; Reinelt, S; Maxwell, A; Page, M; Heide, L

> <Institution>
Universit&#228;t T&#252;bingen

> <Link to Ligand in BindingDB>
http://www.bindingdb.org/bind/chemsearch/marvin/MolStructure.jsp?monomerid=50330296

> <Link to Ligand-Target Pair in BindingDB>
http://www.bindingdb.org/jsp/dbsearch/PrimarySearch_ki.jsp?energyterm=kJ/mole&tag=pol&polymerid=2630&target=DNA+Gyrase+Subunit+B&column=ki&startPg=0&Increment=50&submit=Search

> <Link to Ligand-Target Pair in BindingDB>
http://www.bindingdb.org/jsp/dbsearch/PrimarySearch_ki.jsp?energyterm=kJ/mole&tag=r21&monomerid=50330296&enzyme=DNA+Gyrase+Subunit+B&column=ki&startPg=0&Increment=50&submit=Search

> <Ligand HET ID in PDB>


> <PDB ID(s) for Ligand-Target Complex>


> <PubChem CID>
54730375

> <PubChem SID>
123109411

> <ChEBI ID of Ligand>


> <ChEMBL ID of Ligand>
CHEMBL1276309

> <DrugBank ID of Ligand>


> <IUPHAR_GRAC ID of Ligand>


> <KEGG ID of Ligand>


> <ZINC ID of Ligand>
ZINC64436689

> <Number of Protein Chains in Target (>1 implies a multichain complex)>
1

> <BindingDB Target Chain Sequence>
MSNSYDSSSIKVLKGLDAVRKRPGMYIGDTDDGTGLHHMVFEVVDNAIDEALAGHCKEII
VTIHADNSVSVQDDGRGIPTGIHPEEGVSAAEVIMTVLHAGGKFDDNSYKVSGGLHGVGV
SVVNALSQKLELVIQREGKIHRQIYEHGVPQAPLAVTGETEKTGTMVRFWPSLETFTNVT
EFEYEILAKRLRELSFLNSGVSIRLRDKRDGKEDHFHYEGGIKAFVEYLNKNKTPIHPNI
FYFSTEKDGIGVEVALQWNDGFQENIYCFTNNIPQRDGGTHLAGFRAAMTRTLNAYMDKE
GYSKKAKVSATGDDAREGLIAVVSVKVPDPKFSSQTKDKLVSSEVKSAVEQQMNELLAEY
LLENPTDAKIVVGKIIDAARAREAARRAREMTRRKGALDLAGLPGKLADCQERDPALSEL
YLVEGDSAGGSAKQGRNRKNQAILPLKGKILNVEKARFDKMLSSQEVATLITALGCGIGR
DEYNPDKLRYHSIIIMTDADVDGSHIRTLLLTFFYRQMPEIVERGHVYIAQPPLYKVKKG
KQEQYIKDDEAMDQYQISIALDGATLHTNASAPALAGEALEKLVSEYNATQKMINRMERR
YPKAMLKELIYQPTLTEADLSDEQTVTRWVNALVSELNDKEQHGSQWKFDVHTNAEQNLF
EPIVRVRTHGVDTDYPLDHEFITGGEYRRICTLGEKLRGLLEEDAFIERGERRQPVASFE
QALDWLVKESRRGLSIQRYKGLGEMNPEQLWETTMDPESRRMLRVTVKDAIAADQLFTTL
MGDAVEPRRAFIEENALKAANIDI

> <PDB ID(s) of Target Chain>
1KZN,3G7E,3NUH,4DUH,4HYP,4KFG,4PRV,4PRX,4PU9,4WUB,4WUC,4WUD,4XTJ,4ZVI,5L3J,5MMN,5MMO,5MMP,5Z4H,5Z4O,5Z9B,5Z9E,5Z9F,5Z9L,5Z9M,5Z9N,5Z9Q,6ENG,6F86,6F8J,6F94,6F96

> <UniProt (SwissProt) Recommended Name of Target Chain>
DNA gyrase subunit B

> <UniProt (SwissProt) Entry Name of Target Chain>
GYRB_ECOLI

> <UniProt (SwissProt) Primary ID of Target Chain>
P0AES6

> <UniProt (SwissProt) Secondary ID(s) of Target Chain>
O08438,P06982,Q2M811

> <UniProt (SwissProt) Alternative ID(s) of Target Chain>


> <UniProt (TrEMBL) Submitted Name of Target Chain>


> <UniProt (TrEMBL) Entry Name of Target Chain>


> <UniProt (TrEMBL) Primary ID of Target Chain>


> <UniProt (TrEMBL) Secondary ID(s) of Target Chain>


> <UniProt (TrEMBL) Alternative ID(s) of Target Chain>


$$$$

  Mrv0541 04171609262D          

 31 34  0  0  0  0            999 V2000
   -1.4361    0.4117    0.0000 C   0  0  0  0  0  0  0  0  0  0  0  0
   -1.4361   -0.4117    0.0000 C   0  0  0  0  0  0  0  0  0  0  0  0
   -0.7130   -0.8235    0.0000 C   0  0  0  0  0  0  0  0  0  0  0  0
   -0.7130    0.8235    0.0000 C   0  0  0  0  0  0  0  0  0  0  0  0
    0.0000    0.4117    0.0000 C   0  0  0  0  0  0  0  0  0  0  0  0
    0.0000   -0.4117    0.0000 C   0  0  0  0  0  0  0  0  0  0  0  0
    0.7130   -0.8235    0.0000 N   0  0  0  0  0  0  0  0  0  0  0  0
    1.4261   -0.4117    0.0000 C   0  0  0  0  0  0  0  0  0  0  0  0
    1.4261    0.4117    0.0000 C   0  0  0  0  0  0  0  0  0  0  0  0
    0.7130    0.8235    0.0000 C   0  0  0  0  0  0  0  0  0  0  0  0
    0.7130    1.6489    0.0000 N   0  0  0  0  0  0  0  0  0  0  0  0
   -0.0008    2.0627    0.0000 C   0  0  0  0  0  0  0  0  0  0  0  0
    0.0006    2.8877    0.0000 C   0  0  0  0  0  0  0  0  0  0  0  0
    0.7158    3.2990    0.0000 C   0  0  0  0  0  0  0  0  0  0  0  0
    1.4296    2.8853    0.0000 C   0  0  0  0  0  0  0  0  0  0  0  0
    1.4282    2.0603    0.0000 C   0  0  0  0  0  0  0  0  0  0  0  0
    0.7188    4.1245    0.0000 N   0  0  0  0  0  0  0  0  0  0  0  0
    1.4350    4.5350    0.0000 C   0  0  0  0  0  0  0  0  0  0  0  0
    2.0054    4.2031    0.0000 S   0  0  0  0  0  0  0  0  0  0  0  0
    1.4380    5.3604    0.0000 N   0  0  0  0  0  0  0  0  0  0  0  0
    2.1541    5.7709    0.0000 C   0  0  0  0  0  0  0  0  0  0  0  0
    2.1584    6.5960    0.0000 C   0  0  0  0  0  0  0  0  0  0  0  0
    2.8750    7.0048    0.0000 C   0  0  0  0  0  0  0  0  0  0  0  0
    3.5873    6.5887    0.0000 C   0  0  0  0  0  0  0  0  0  0  0  0
    3.5831    5.7637    0.0000 C   0  0  0  0  0  0  0  0  0  0  0  0
    2.8666    5.3548    0.0000 C   0  0  0  0  0  0  0  0  0  0  0  0
    1.9977   -0.7417    0.0000 C   0  0  0  0  0  0  0  0  0  0  0  0
    4.3051    6.9962    0.0000 O   0  0  0  0  0  0  0  0  0  0  0  0
    4.8746    6.6626    0.0000 C   0  0  0  0  0  0  0  0  0  0  0  0
   -2.1500    0.8260    0.0000 O   0  0  0  0  0  0  0  0  0  0  0  0
   -2.1490    1.4860    0.0000 C   0  0  0  0  0  0  0  0  0  0  0  0
  1  2  4  0  0  0  0
  2  3  4  0  0  0  0
  3  6  4  0  0  0  0
  5  4  4  0  0  0  0
  4  1  4  0  0  0  0
  5  6  4  0  0  0  0
  6  7  4  0  0  0  0
  7  8  4  0  0  0  0
  8  9  4  0  0  0  0
  9 10  4  0  0  0  0
 10  5  4  0  0  0  0
 11 12  1  0  0  0  0
 11 16  1  0  0  0  0
 12 13  1  0  0  0  0
 13 14  1  0  0  0  0
 14 15  1  0  0  0  0
 15 16  1  0  0  0  0
 10 11  1  0  0  0  0
 14 17  1  0  0  0  0
 17 18  1  0  0  0  0
 18 19  2  0  0  0  0
 18 20  1  0  0  0  0
 20 21  1  0  0  0  0
 21 22  4  0  0  0  0
 22 23  4  0  0  0  0
 23 24  4  0  0  0  0
 24 25  4  0  0  0  0
 25 26  4  0  0  0  0
 26 21  4  0  0  0  0
  8 27  1  0  0  0  0
 24 28  1  0  0  0  0
 28 29  1  0  0  0  0
  1 30  1  0  0  0  0
 30 31  1  0  0  0  0
M  END
> <From> 
www.bindingDB.org

> <BindingDB Reactant_set_id>
50303832

> <Ligand InChI>
InChI=1S/C24H28N4O2S/c1-16-14-23(21-15-20(30-3)8-9-22(21)25-16)28-12-10-18(11-13-28)27-24(31)26-17-4-6-19(29-2)7-5-17/h4-9,14-15,18H,10-13H2,1-3H3,(H2,26,27,31)

> <Ligand InChI Key>
FCZLVJRONHYEPO-UHFFFAOYSA-N

> <BindingDB MonomerID>
50067156

> <BindingDB Ligand Name>
CHEMBL3403277

> <Target Name Assigned by Curator or DataSource>
DNA gyrase subunit B

> <Target Source Organism According to Curator or DataSource>


> <Ki (nM)>


> <IC50 (nM)>
 10100

> <Kd (nM)>


> <EC50 (nM)>


> <kon (M-1-s-1)>


> <koff (s-1)>


> <pH>


> <Temp C>


> <Curation/DataSource>
ChEMBL

> <Article DOI>
10.1016/j.bmc.2015.03.004

> <PMID>
25801151

> <PubChem AID>


> <Patent Number>


> <Authors>
Medapi, B; Renuka, J; Saxena, S; Sridevi, JP; Medishetti, R; Kulkarni, P; Yogeeswari, P; Sriram, D

> <Institution>
Birla Institute of Technology&amp; Science-Pilani

> <Link to Ligand in BindingDB>
http://www.bindingdb.org/bind/chemsearch/marvin/MolStructure.jsp?monomerid=50067156

> <Link to Ligand-Target Pair in BindingDB>
http://www.bindingdb.org/jsp/dbsearch/PrimarySearch_ki.jsp?energyterm=kJ/mole&tag=pol&polymerid=50006452&target=DNA+gyrase+subunit+B&column=ki&startPg=0&Increment=50&submit=Search

> <Link to Ligand-Target Pair in BindingDB>
http://www.bindingdb.org/jsp/dbsearch/PrimarySearch_ki.jsp?energyterm=kJ/mole&tag=r21&monomerid=50067156&enzyme=DNA+gyrase+subunit+B&column=ki&startPg=0&Increment=50&submit=Search

> <Ligand HET ID in PDB>


> <PDB ID(s) for Ligand-Target Complex>


> <PubChem CID>
118729693

> <PubChem SID>
313071786

> <ChEBI ID of Ligand>


> <ChEMBL ID of Ligand>


> <DrugBank ID of Ligand>


> <IUPHAR_GRAC ID of Ligand>


> <KEGG ID of Ligand>


> <ZINC ID of Ligand>


> <Number of Protein Chains in Target (>1 implies a multichain complex)>
1

> <BindingDB Target Chain Sequence>
MAAQKNNAPKEYGADSITILEGLEAVRKRPGMYIGSTGERGLHHLIWEVVDNAVDEAMAGFATRVDVKIHADGSVEVRDDGRGIPVEMHATGMPTIDVVMTQLHAGGKFDGETYAVSGGLHGVGVSVVNALSTRLEATVLRDGYEWFQYYDRSVPGKLKQGGETKETGTTIRFWADPEIFETTDYNFETVARRLQEMAFLNKGLTIELTDERVTAEEVVDDVVKDTAEAPKTADEKAAEATGPSKVKHRVFHYPGGLVDYVKHINRTKTPIQQSIIDFDGKGPGHEVEIAMQWNAGYSESVHTFANTINTHEGGTHEEGFRAALTSVVNRYAKDKKLLKDKDPNLTGDDIREGLAAVISVKVAEPQFEGQTKTKLGNTEVKSFVQKICNEQLQHWFEANPAEAKTVVNKAVSSAQARIAARKARELVRRKSATDIGGLPGKLADCRSTDPSKSELYVVEGDSAGGSAKSGRDSMFQAILPLRGKIINVEKARIDRVLKNTEVQSIITALGTGIHDEFDISKLRYHKIVLMADADVDGQHISTLLLTLLFRFMKPLVENGHIFLAQPPLYKLKWQRSEPEFAYSDRERDGLLEAGRAAGKKINVDDGIQRYKGLGEMDAKELWETTMDPSVRVLRQVTLDDAAAADELFSILMGEDVEARRSFITRNAKDVRFLDV

> <PDB ID(s) of Target Chain>
4BAE

> <UniProt (SwissProt) Recommended Name of Target Chain>
DNA gyrase subunit B

> <UniProt (SwissProt) Entry Name of Target Chain>
GYRB_MYCSM

> <UniProt (SwissProt) Primary ID of Target Chain>
P0C559

> <UniProt (SwissProt) Secondary ID(s) of Target Chain>
P48355,Q59555

> <UniProt (SwissProt) Alternative ID(s) of Target Chain>


> <UniProt (TrEMBL) Submitted Name of Target Chain>


> <UniProt (TrEMBL) Entry Name of Target Chain>


> <UniProt (TrEMBL) Primary ID of Target Chain>


> <UniProt (TrEMBL) Secondary ID(s) of Target Chain>


> <UniProt (TrEMBL) Alternative ID(s) of Target Chain>


$$$$

  Mrv0541 04171609262D          

 30 33  0  0  0  0            999 V2000
   -1.4361    0.4117    0.0000 C   0  0  0  0  0  0  0  0  0  0  0  0
   -1.4361   -0.4117    0.0000 C   0  0  0  0  0  0  0  0  0  0  0  0
   -0.7130   -0.8235    0.0000 C   0  0  0  0  0  0  0  0  0  0  0  0
   -0.7130    0.8235    0.0000 C   0  0  0  0  0  0  0  0  0  0  0  0
    0.0000    0.4117    0.0000 C   0  0  0  0  0  0  0  0  0  0  0  0
    0.0000   -0.4117    0.0000 C   0  0  0  0  0  0  0  0  0  0  0  0
    0.7130   -0.8235    0.0000 N   0  0  0  0  0  0  0  0  0  0  0  0
    1.4261   -0.4117    0.0000 C   0  0  0  0  0  0  0  0  0  0  0  0
    1.4261    0.4117    0.0000 C   0  0  0  0  0  0  0  0  0  0  0  0
    0.7130    0.8235    0.0000 C   0  0  0  0  0  0  0  0  0  0  0  0
    0.7130    1.6489    0.0000 N   0  0  0  0  0  0  0  0  0  0  0  0
   -0.0008    2.0627    0.0000 C   0  0  0  0  0  0  0  0  0  0  0  0
    0.0006    2.8877    0.0000 C   0  0  0  0  0  0  0  0  0  0  0  0
    0.7158    3.2990    0.0000 C   0  0  0  0  0  0  0  0  0  0  0  0
    1.4296    2.8853    0.0000 C   0  0  0  0  0  0  0  0  0  0  0  0
    1.4282    2.0603    0.0000 C   0  0  0  0  0  0  0  0  0  0  0  0
    0.7188    4.1245    0.0000 N   0  0  0  0  0  0  0  0  0  0  0  0
    1.4350    4.5350    0.0000 C   0  0  0  0  0  0  0  0  0  0  0  0
    2.0054    4.2031    0.0000 O   0  0  0  0  0  0  0  0  0  0  0  0
    1.4380    5.3604    0.0000 N   0  0  0  0  0  0  0  0  0  0  0  0
    2.1541    5.7709    0.0000 C   0  0  0  0  0  0  0  0  0  0  0  0
    2.1584    6.5960    0.0000 C   0  0  0  0  0  0  0  0  0  0  0  0
    2.8750    7.0048    0.0000 C   0  0  0  0  0  0  0  0  0  0  0  0
    3.5873    6.5887    0.0000 C   0  0  0  0  0  0  0  0  0  0  0  0
    3.5831    5.7637    0.0000 C   0  0  0  0  0  0  0  0  0  0  0  0
    2.8666    5.3548    0.0000 C   0  0  0  0  0  0  0  0  0  0  0  0
    1.9977   -0.7417    0.0000 C   0  0  0  0  0  0  0  0  0  0  0  0
    4.3051    6.9962    0.0000 O   0  0  0  0  0  0  0  0  0  0  0  0
    4.8746    6.6626    0.0000 C   0  0  0  0  0  0  0  0  0  0  0  0
   -2.0067    0.7434    0.0000 F   0  0  0  0  0  0  0  0  0  0  0  0
  1  2  4  0  0  0  0
  2  3  4  0  0  0  0
  3  6  4  0  0  0  0
  5  4  4  0  0  0  0
  4  1  4  0  0  0  0
  5  6  4  0  0  0  0
  6  7  4  0  0  0  0
  7  8  4  0  0  0  0
  8  9  4  0  0  0  0
  9 10  4  0  0  0  0
 10  5  4  0  0  0  0
 11 12  1  0  0  0  0
 11 16  1  0  0  0  0
 12 13  1  0  0  0  0
 13 14  1  0  0  0  0
 14 15  1  0  0  0  0
 15 16  1  0  0  0  0
 10 11  1  0  0  0  0
 14 17  1  0  0  0  0
 17 18  1  0  0  0  0
 18 19  2  0  0  0  0
 18 20  1  0  0  0  0
 20 21  1  0  0  0  0
 21 22  4  0  0  0  0
 22 23  4  0  0  0  0
 23 24  4  0  0  0  0
 24 25  4  0  0  0  0
 25 26  4  0  0  0  0
 26 21  4  0  0  0  0
  8 27  1  0  0  0  0
 24 28  1  0  0  0  0
 28 29  1  0  0  0  0
  1 30  1  0  0  0  0
M  END
> <From> 
www.bindingDB.org

> <BindingDB Reactant_set_id>
50303800

> <Ligand InChI>
InChI=1S/C23H25FN4O2/c1-15-13-22(20-14-16(24)3-8-21(20)25-15)28-11-9-18(10-12-28)27-23(29)26-17-4-6-19(30-2)7-5-17/h3-8,13-14,18H,9-12H2,1-2H3,(H2,26,27,29)

> <Ligand InChI Key>
KAMQHTIFHKQHNP-UHFFFAOYSA-N

> <BindingDB MonomerID>
50067036

> <BindingDB Ligand Name>
CHEMBL3403259

> <Target Name Assigned by Curator or DataSource>
DNA gyrase subunit B

> <Target Source Organism According to Curator or DataSource>


> <Ki (nM)>


> <IC50 (nM)>
 10120

> <Kd (nM)>


> <EC50 (nM)>


> <kon (M-1-s-1)>


> <koff (s-1)>


> <pH>


> <Temp C>


> <Curation/DataSource>
ChEMBL

> <Article DOI>
10.1016/j.bmc.2015.03.004

> <PMID>
25801151

> <PubChem AID>


> <Patent Number>


> <Authors>
Medapi, B; Renuka, J; Saxena, S; Sridevi, JP; Medishetti, R; Kulkarni, P; Yogeeswari, P; Sriram, D

> <Institution>
Birla Institute of Technology&amp; Science-Pilani

> <Link to Ligand in BindingDB>
http://www.bindingdb.org/bind/chemsearch/marvin/MolStructure.jsp?monomerid=50067036

> <Link to Ligand-Target Pair in BindingDB>
http://www.bindingdb.org/jsp/dbsearch/PrimarySearch_ki.jsp?energyterm=kJ/mole&tag=pol&polymerid=50006452&target=DNA+gyrase+subunit+B&column=ki&startPg=0&Increment=50&submit=Search

> <Link to Ligand-Target Pair in BindingDB>
http://www.bindingdb.org/jsp/dbsearch/PrimarySearch_ki.jsp?energyterm=kJ/mole&tag=r21&monomerid=50067036&enzyme=DNA+gyrase+subunit+B&column=ki&startPg=0&Increment=50&submit=Search

> <Ligand HET ID in PDB>


> <PDB ID(s) for Ligand-Target Complex>


> <PubChem CID>
118729675

> <PubChem SID>
313045059

> <ChEBI ID of Ligand>


> <ChEMBL ID of Ligand>


> <DrugBank ID of Ligand>


> <IUPHAR_GRAC ID of Ligand>


> <KEGG ID of Ligand>


> <ZINC ID of Ligand>


> <Number of Protein Chains in Target (>1 implies a multichain complex)>
1

> <BindingDB Target Chain Sequence>
MAAQKNNAPKEYGADSITILEGLEAVRKRPGMYIGSTGERGLHHLIWEVVDNAVDEAMAGFATRVDVKIHADGSVEVRDDGRGIPVEMHATGMPTIDVVMTQLHAGGKFDGETYAVSGGLHGVGVSVVNALSTRLEATVLRDGYEWFQYYDRSVPGKLKQGGETKETGTTIRFWADPEIFETTDYNFETVARRLQEMAFLNKGLTIELTDERVTAEEVVDDVVKDTAEAPKTADEKAAEATGPSKVKHRVFHYPGGLVDYVKHINRTKTPIQQSIIDFDGKGPGHEVEIAMQWNAGYSESVHTFANTINTHEGGTHEEGFRAALTSVVNRYAKDKKLLKDKDPNLTGDDIREGLAAVISVKVAEPQFEGQTKTKLGNTEVKSFVQKICNEQLQHWFEANPAEAKTVVNKAVSSAQARIAARKARELVRRKSATDIGGLPGKLADCRSTDPSKSELYVVEGDSAGGSAKSGRDSMFQAILPLRGKIINVEKARIDRVLKNTEVQSIITALGTGIHDEFDISKLRYHKIVLMADADVDGQHISTLLLTLLFRFMKPLVENGHIFLAQPPLYKLKWQRSEPEFAYSDRERDGLLEAGRAAGKKINVDDGIQRYKGLGEMDAKELWETTMDPSVRVLRQVTLDDAAAADELFSILMGEDVEARRSFITRNAKDVRFLDV

> <PDB ID(s) of Target Chain>
4BAE

> <UniProt (SwissProt) Recommended Name of Target Chain>
DNA gyrase subunit B

> <UniProt (SwissProt) Entry Name of Target Chain>
GYRB_MYCSM

> <UniProt (SwissProt) Primary ID of Target Chain>
P0C559

> <UniProt (SwissProt) Secondary ID(s) of Target Chain>
P48355,Q59555

> <UniProt (SwissProt) Alternative ID(s) of Target Chain>


> <UniProt (TrEMBL) Submitted Name of Target Chain>


> <UniProt (TrEMBL) Entry Name of Target Chain>


> <UniProt (TrEMBL) Primary ID of Target Chain>


> <UniProt (TrEMBL) Secondary ID(s) of Target Chain>


> <UniProt (TrEMBL) Alternative ID(s) of Target Chain>


$$$$

  SciTegic09081514182D

 23 25  0  0  0  0            999 V2000
    1.2990   -0.7500    0.0000 C   0  0
    1.2990    0.7500    0.0000 C   0  0
    0.0000    1.5000    0.0000 C   0  0
   -1.2990    0.7500    0.0000 C   0  0
   -1.2990   -0.7500    0.0000 C   0  0
    0.0000   -1.5000    0.0000 C   0  0
   -2.5987   -1.5004    0.0000 C   0  0
   -3.9511   -0.8815    0.0000 S   0  0
   -4.9530   -1.9978    0.0000 C   0  0
   -4.2010   -3.2957    0.0000 C   0  0
   -2.7343   -2.9815    0.0000 C   0  0
   -4.8053   -4.6666    0.0000 C   0  0
   -4.0971   -5.6353    0.0000 O   0  0
   -5.9983   -4.7960    0.0000 N   0  0
   -6.4430   -1.8405    0.0000 N   0  0
   -7.0537   -0.4695    0.0000 C   0  0
   -6.3482    0.5012    0.0000 O   0  0
   -8.5462   -0.3119    0.0000 C   0  0
   -9.1585    1.0575    0.0000 C   0  0
  -10.6505    1.2119    0.0000 C   0  0
  -11.5303   -0.0030    0.0000 C   0  0
  -10.9181   -1.3723    0.0000 C   0  0
   -9.4261   -1.5268    0.0000 C   0  0
  1  2  2  0
  2  3  1  0
  3  4  2  0
  4  5  1  0
  5  6  2  0
  6  1  1  0
  7  8  1  0
  8  9  1  0
  9 10  2  0
 10 11  1  0
 11  7  2  0
  5  7  1  0
 10 12  1  0
 12 13  2  0
 12 14  1  0
  9 15  1  0
 15 16  1  0
 16 17  2  0
 16 18  1  0
 18 19  1  0
 18 23  1  0
 19 20  1  0
 20 21  1  0
 21 22  1  0
 22 23  1  0
M  END
> <From> 
www.bindingDB.org

> <BindingDB Reactant_set_id>
50302351

> <Ligand InChI>
InChI=1S/C18H20N2O2S/c19-16(21)14-11-15(12-7-3-1-4-8-12)23-18(14)20-17(22)13-9-5-2-6-10-13/h1,3-4,7-8,11,13H,2,5-6,9-10H2,(H2,19,21)(H,20,22)

> <Ligand InChI Key>
PAPAAUQCXKVTTD-UHFFFAOYSA-N

> <BindingDB MonomerID>
50066116

> <BindingDB Ligand Name>
CHEMBL3402956

> <Target Name Assigned by Curator or DataSource>
DNA gyrase subunit B

> <Target Source Organism According to Curator or DataSource>


> <Ki (nM)>


> <IC50 (nM)>
 10190

> <Kd (nM)>


> <EC50 (nM)>


> <kon (M-1-s-1)>


> <koff (s-1)>


> <pH>


> <Temp C>
25.00

> <Curation/DataSource>
ChEMBL

> <Article DOI>
10.1016/j.bmc.2015.02.032

> <PMID>
25766629

> <PubChem AID>


> <Patent Number>


> <Authors>
Saxena, S; Samala, G; Renuka, J; Sridevi, JP; Yogeeswari, P; Sriram, D

> <Institution>
Birla Institute of Technology&amp; Science-Pilani

> <Link to Ligand in BindingDB>
http://www.bindingdb.org/bind/chemsearch/marvin/MolStructure.jsp?monomerid=50066116

> <Link to Ligand-Target Pair in BindingDB>
http://www.bindingdb.org/jsp/dbsearch/PrimarySearch_ki.jsp?energyterm=kJ/mole&tag=pol&polymerid=50006452&target=DNA+gyrase+subunit+B&column=ki&startPg=0&Increment=50&submit=Search

> <Link to Ligand-Target Pair in BindingDB>
http://www.bindingdb.org/jsp/dbsearch/PrimarySearch_ki.jsp?energyterm=kJ/mole&tag=r21&monomerid=50066116&enzyme=DNA+gyrase+subunit+B&column=ki&startPg=0&Increment=50&submit=Search

> <Ligand HET ID in PDB>


> <PDB ID(s) for Ligand-Target Complex>


> <PubChem CID>
16857837

> <PubChem SID>
103960798

> <ChEBI ID of Ligand>


> <ChEMBL ID of Ligand>
CHEMBL316532

> <DrugBank ID of Ligand>


> <IUPHAR_GRAC ID of Ligand>


> <KEGG ID of Ligand>


> <ZINC ID of Ligand>
ZINC53127989

> <Number of Protein Chains in Target (>1 implies a multichain complex)>
1

> <BindingDB Target Chain Sequence>
MAAQKNNAPKEYGADSITILEGLEAVRKRPGMYIGSTGERGLHHLIWEVVDNAVDEAMAGFATRVDVKIHADGSVEVRDDGRGIPVEMHATGMPTIDVVMTQLHAGGKFDGETYAVSGGLHGVGVSVVNALSTRLEATVLRDGYEWFQYYDRSVPGKLKQGGETKETGTTIRFWADPEIFETTDYNFETVARRLQEMAFLNKGLTIELTDERVTAEEVVDDVVKDTAEAPKTADEKAAEATGPSKVKHRVFHYPGGLVDYVKHINRTKTPIQQSIIDFDGKGPGHEVEIAMQWNAGYSESVHTFANTINTHEGGTHEEGFRAALTSVVNRYAKDKKLLKDKDPNLTGDDIREGLAAVISVKVAEPQFEGQTKTKLGNTEVKSFVQKICNEQLQHWFEANPAEAKTVVNKAVSSAQARIAARKARELVRRKSATDIGGLPGKLADCRSTDPSKSELYVVEGDSAGGSAKSGRDSMFQAILPLRGKIINVEKARIDRVLKNTEVQSIITALGTGIHDEFDISKLRYHKIVLMADADVDGQHISTLLLTLLFRFMKPLVENGHIFLAQPPLYKLKWQRSEPEFAYSDRERDGLLEAGRAAGKKINVDDGIQRYKGLGEMDAKELWETTMDPSVRVLRQVTLDDAAAADELFSILMGEDVEARRSFITRNAKDVRFLDV

> <PDB ID(s) of Target Chain>
4BAE

> <UniProt (SwissProt) Recommended Name of Target Chain>
DNA gyrase subunit B

> <UniProt (SwissProt) Entry Name of Target Chain>
GYRB_MYCSM

> <UniProt (SwissProt) Primary ID of Target Chain>
P0C559

> <UniProt (SwissProt) Secondary ID(s) of Target Chain>
P48355,Q59555

> <UniProt (SwissProt) Alternative ID(s) of Target Chain>


> <UniProt (TrEMBL) Submitted Name of Target Chain>


> <UniProt (TrEMBL) Entry Name of Target Chain>


> <UniProt (TrEMBL) Primary ID of Target Chain>


> <UniProt (TrEMBL) Secondary ID(s) of Target Chain>


> <UniProt (TrEMBL) Alternative ID(s) of Target Chain>


$$$$

  SciTegic02271514552D

 31 34  0  0  0  0            999 V2000
   10.7039   -5.1103    0.0000 O   0  0
   11.1842   -4.4492    0.0000 C   0  0
   10.7039   -3.7881    0.0000 C   0  0
    9.9267   -4.0406    0.0000 C   0  0
    9.9267   -4.8578    0.0000 C   0  0
    9.2190   -3.6320    0.0000 C   0  0
    8.5113   -4.0406    0.0000 C   0  0
    8.5113   -4.8578    0.0000 C   0  0
    9.2190   -5.2664    0.0000 C   0  0
   12.0014   -4.4492    0.0000 C   0  0
   12.4100   -5.1569    0.0000 O   0  0
   12.4100   -3.7415    0.0000 O   0  0
    7.8036   -3.6320    0.0000 N   0  0
    7.0959   -4.0406    0.0000 C   0  0
    6.3882   -3.6320    0.0000 C   0  0
    6.3882   -2.8148    0.0000 N   0  0
    7.0959   -2.4062    0.0000 C   0  0
    7.8036   -2.8148    0.0000 C   0  0
    5.6805   -2.4062    0.0000 C   0  0
    5.6805   -1.5890    0.0000 O   0  0
    4.9728   -2.8148    0.0000 C   0  0
    4.2651   -2.4062    0.0000 C   0  0
    3.5573   -2.8148    0.0000 C   0  0
    2.8496   -2.4062    0.0000 C   0  0
    2.8496   -1.5890    0.0000 C   0  0
    3.5573   -1.1804    0.0000 C   0  0
    4.2651   -1.5890    0.0000 C   0  0
   13.2272   -3.7415    0.0000 C   0  0
   13.6358   -3.0338    0.0000 C   0  0
    2.1419   -1.1804    0.0000 O   0  0
    2.1419   -0.3633    0.0000 C   0  0
  1  2  1  0
  2  3  2  0
  3  4  1  0
  4  5  1  0
  1  5  1  0
  6  7  1  0
  7  8  2  0
  8  9  1  0
  5  9  2  0
  4  6  2  0
 10 11  2  0
 10 12  1  0
  2 10  1  0
 13 14  1  0
 14 15  1  0
 15 16  1  0
 16 17  1  0
 17 18  1  0
 13 18  1  0
 19 20  2  0
 19 21  1  0
 22 23  1  0
 23 24  2  0
 24 25  1  0
 25 26  2  0
 26 27  1  0
 22 27  2  0
 21 22  1  0
 16 19  1  0
  7 13  1  0
 28 29  1  0
 12 28  1  0
 25 30  1  0
 30 31  1  0
M  END
> <From> 
www.bindingDB.org

> <BindingDB Reactant_set_id>
50369958

> <Ligand InChI>
InChI=1S/C24H26N2O5/c1-3-30-24(28)22-16-18-15-19(6-9-21(18)31-22)25-10-12-26(13-11-25)23(27)14-17-4-7-20(29-2)8-5-17/h4-9,15-16H,3,10-14H2,1-2H3

> <Ligand InChI Key>
PVZXHSXUCLIVKI-UHFFFAOYSA-N

> <BindingDB MonomerID>
50100690

> <BindingDB Ligand Name>
CHEMBL3323159

> <Target Name Assigned by Curator or DataSource>
DNA gyrase subunit B

> <Target Source Organism According to Curator or DataSource>


> <Ki (nM)>


> <IC50 (nM)>
 10200

> <Kd (nM)>


> <EC50 (nM)>


> <kon (M-1-s-1)>


> <koff (s-1)>


> <pH>


> <Temp C>


> <Curation/DataSource>
ChEMBL

> <Article DOI>
10.1016/j.bmc.2014.06.041

> <PMID>
25129171

> <PubChem AID>


> <Patent Number>


> <Authors>
Renuka, J; Reddy, KI; Srihari, K; Jeankumar, VU; Shravan, M; Sridevi, JP; Yogeeswari, P; Babu, KS; Sriram, D

> <Institution>
Institute of Technology&amp; Science-Pilani

> <Link to Ligand in BindingDB>
http://www.bindingdb.org/bind/chemsearch/marvin/MolStructure.jsp?monomerid=50100690

> <Link to Ligand-Target Pair in BindingDB>
http://www.bindingdb.org/jsp/dbsearch/PrimarySearch_ki.jsp?energyterm=kJ/mole&tag=pol&polymerid=50006452&target=DNA+gyrase+subunit+B&column=ki&startPg=0&Increment=50&submit=Search

> <Link to Ligand-Target Pair in BindingDB>
http://www.bindingdb.org/jsp/dbsearch/PrimarySearch_ki.jsp?energyterm=kJ/mole&tag=r21&monomerid=50100690&enzyme=DNA+gyrase+subunit+B&column=ki&startPg=0&Increment=50&submit=Search

> <Ligand HET ID in PDB>


> <PDB ID(s) for Ligand-Target Complex>


> <PubChem CID>
118710571

> <PubChem SID>
103997418

> <ChEBI ID of Ligand>


> <ChEMBL ID of Ligand>
CHEMBL70522

> <DrugBank ID of Ligand>


> <IUPHAR_GRAC ID of Ligand>


> <KEGG ID of Ligand>


> <ZINC ID of Ligand>
ZINC49816721

> <Number of Protein Chains in Target (>1 implies a multichain complex)>
1

> <BindingDB Target Chain Sequence>
MAAQKNNAPKEYGADSITILEGLEAVRKRPGMYIGSTGERGLHHLIWEVVDNAVDEAMAGFATRVDVKIHADGSVEVRDDGRGIPVEMHATGMPTIDVVMTQLHAGGKFDGETYAVSGGLHGVGVSVVNALSTRLEATVLRDGYEWFQYYDRSVPGKLKQGGETKETGTTIRFWADPEIFETTDYNFETVARRLQEMAFLNKGLTIELTDERVTAEEVVDDVVKDTAEAPKTADEKAAEATGPSKVKHRVFHYPGGLVDYVKHINRTKTPIQQSIIDFDGKGPGHEVEIAMQWNAGYSESVHTFANTINTHEGGTHEEGFRAALTSVVNRYAKDKKLLKDKDPNLTGDDIREGLAAVISVKVAEPQFEGQTKTKLGNTEVKSFVQKICNEQLQHWFEANPAEAKTVVNKAVSSAQARIAARKARELVRRKSATDIGGLPGKLADCRSTDPSKSELYVVEGDSAGGSAKSGRDSMFQAILPLRGKIINVEKARIDRVLKNTEVQSIITALGTGIHDEFDISKLRYHKIVLMADADVDGQHISTLLLTLLFRFMKPLVENGHIFLAQPPLYKLKWQRSEPEFAYSDRERDGLLEAGRAAGKKINVDDGIQRYKGLGEMDAKELWETTMDPSVRVLRQVTLDDAAAADELFSILMGEDVEARRSFITRNAKDVRFLDV

> <PDB ID(s) of Target Chain>
4BAE

> <UniProt (SwissProt) Recommended Name of Target Chain>
DNA gyrase subunit B

> <UniProt (SwissProt) Entry Name of Target Chain>
GYRB_MYCSM

> <UniProt (SwissProt) Primary ID of Target Chain>
P0C559

> <UniProt (SwissProt) Secondary ID(s) of Target Chain>
P48355,Q59555

> <UniProt (SwissProt) Alternative ID(s) of Target Chain>


> <UniProt (TrEMBL) Submitted Name of Target Chain>


> <UniProt (TrEMBL) Entry Name of Target Chain>


> <UniProt (TrEMBL) Primary ID of Target Chain>


> <UniProt (TrEMBL) Secondary ID(s) of Target Chain>


> <UniProt (TrEMBL) Alternative ID(s) of Target Chain>


$$$$

  SciTegic12211713302D

 29 33  0  0  0  0            999 V2000
   11.7644   -8.5833    0.0000 C   0  0
   11.0524   -8.1829    0.0000 O   0  0
   12.5444   -7.3547    0.0000 N   0  0
   12.4663   -8.1665    0.0000 C   0  0
   13.2193   -8.4879    0.0000 C   0  0
   13.7565   -7.8761    0.0000 C   0  0
   14.5736   -7.8660    0.0000 C   0  0
   14.9740   -7.1540    0.0000 C   0  0
   14.5572   -6.4521    0.0000 C   0  0
   13.7401   -6.4622    0.0000 C   0  0
   13.3398   -7.1742    0.0000 C   0  0
   11.7745   -9.4004    0.0000 N   0  0
   11.0726   -9.8171    0.0000 C   0  0
   11.0786  -10.6343    0.0000 C   0  0
   11.7947  -11.0346    0.0000 N   0  0
   12.4966  -10.6179    0.0000 C   0  0
   12.4865   -9.8007    0.0000 C   0  0
   11.8209  -13.4859    0.0000 N   0  0
   12.5228  -13.0692    0.0000 C   0  0
   12.5168  -12.2521    0.0000 C   0  0
   11.8007  -11.8517    0.0000 C   0  0
   11.0988  -12.2685    0.0000 C   0  0
   10.3868  -11.8681    0.0000 C   0  0
    9.6849  -12.2849    0.0000 C   0  0
    9.6909  -13.1020    0.0000 C   0  0
   10.4070  -13.5023    0.0000 C   0  0
   11.1089  -13.0856    0.0000 C   0  0
    8.9931  -13.5187    0.0000 Cl  0  0
   15.7911   -7.1443    0.0000 Cl  0  0
  1  2  2  0
  3  4  1  0
  4  5  2  0
  5  6  1  0
  6  7  1  0
  7  8  2  0
  8  9  1  0
  9 10  2  0
 10 11  1  0
  3 11  1  0
  6 11  2  0
  1  4  1  0
 12 13  1  0
 13 14  1  0
 14 15  1  0
 15 16  1  0
 16 17  1  0
 12 17  1  0
 18 19  2  0
 19 20  1  0
 20 21  2  0
 21 22  1  0
 22 23  2  0
 23 24  1  0
 24 25  2  0
 25 26  1  0
 26 27  2  0
 18 27  1  0
 22 27  1  0
 25 28  1  0
 15 21  1  0
  1 12  1  0
  8 29  1  0
M  END
> <From> 
www.bindingDB.org

> <BindingDB Reactant_set_id>
50528081

> <Ligand InChI>
InChI=1S/C22H18Cl2N4O/c23-15-2-4-18-14(11-15)12-20(26-18)22(29)28-9-7-27(8-10-28)21-5-6-25-19-13-16(24)1-3-17(19)21/h1-6,11-13,26H,7-10H2

> <Ligand InChI Key>
ROMOSVFEUUZEHB-UHFFFAOYSA-N

> <BindingDB MonomerID>
50202225

> <BindingDB Ligand Name>
CHEMBL3923417

> <Target Name Assigned by Curator or DataSource>
DNA gyrase subunit B

> <Target Source Organism According to Curator or DataSource>


> <Ki (nM)>


> <IC50 (nM)>
 10300

> <Kd (nM)>


> <EC50 (nM)>


> <kon (M-1-s-1)>


> <koff (s-1)>


> <pH>


> <Temp C>


> <Curation/DataSource>
ChEMBL

> <Article DOI>
10.1016/j.ejmech.2016.06.042

> <PMID>
27371925

> <PubChem AID>


> <Patent Number>


> <Authors>
Jeankumar, VU; Reshma, RS; Vats, R; Janupally, R; Saxena, S; Yogeeswari, P; Sriram, D

> <Institution>
Birla Institute of Technology&amp; Science-Pilani

> <Link to Ligand in BindingDB>
http://www.bindingdb.org/bind/chemsearch/marvin/MolStructure.jsp?monomerid=50202225

> <Link to Ligand-Target Pair in BindingDB>
http://www.bindingdb.org/jsp/dbsearch/PrimarySearch_ki.jsp?energyterm=kJ/mole&tag=pol&polymerid=50006452&target=DNA+gyrase+subunit+B&column=ki&startPg=0&Increment=50&submit=Search

> <Link to Ligand-Target Pair in BindingDB>
http://www.bindingdb.org/jsp/dbsearch/PrimarySearch_ki.jsp?energyterm=kJ/mole&tag=r21&monomerid=50202225&enzyme=DNA+gyrase+subunit+B&column=ki&startPg=0&Increment=50&submit=Search

> <Ligand HET ID in PDB>


> <PDB ID(s) for Ligand-Target Complex>


> <PubChem CID>
134140214

> <PubChem SID>
375979593

> <ChEBI ID of Ligand>


> <ChEMBL ID of Ligand>


> <DrugBank ID of Ligand>


> <IUPHAR_GRAC ID of Ligand>


> <KEGG ID of Ligand>


> <ZINC ID of Ligand>


> <Number of Protein Chains in Target (>1 implies a multichain complex)>
1

> <BindingDB Target Chain Sequence>
MAAQKNNAPKEYGADSITILEGLEAVRKRPGMYIGSTGERGLHHLIWEVVDNAVDEAMAGFATRVDVKIHADGSVEVRDDGRGIPVEMHATGMPTIDVVMTQLHAGGKFDGETYAVSGGLHGVGVSVVNALSTRLEATVLRDGYEWFQYYDRSVPGKLKQGGETKETGTTIRFWADPEIFETTDYNFETVARRLQEMAFLNKGLTIELTDERVTAEEVVDDVVKDTAEAPKTADEKAAEATGPSKVKHRVFHYPGGLVDYVKHINRTKTPIQQSIIDFDGKGPGHEVEIAMQWNAGYSESVHTFANTINTHEGGTHEEGFRAALTSVVNRYAKDKKLLKDKDPNLTGDDIREGLAAVISVKVAEPQFEGQTKTKLGNTEVKSFVQKICNEQLQHWFEANPAEAKTVVNKAVSSAQARIAARKARELVRRKSATDIGGLPGKLADCRSTDPSKSELYVVEGDSAGGSAKSGRDSMFQAILPLRGKIINVEKARIDRVLKNTEVQSIITALGTGIHDEFDISKLRYHKIVLMADADVDGQHISTLLLTLLFRFMKPLVENGHIFLAQPPLYKLKWQRSEPEFAYSDRERDGLLEAGRAAGKKINVDDGIQRYKGLGEMDAKELWETTMDPSVRVLRQVTLDDAAAADELFSILMGEDVEARRSFITRNAKDVRFLDV

> <PDB ID(s) of Target Chain>
4BAE

> <UniProt (SwissProt) Recommended Name of Target Chain>
DNA gyrase subunit B

> <UniProt (SwissProt) Entry Name of Target Chain>
GYRB_MYCSM

> <UniProt (SwissProt) Primary ID of Target Chain>
P0C559

> <UniProt (SwissProt) Secondary ID(s) of Target Chain>
P48355,Q59555

> <UniProt (SwissProt) Alternative ID(s) of Target Chain>


> <UniProt (TrEMBL) Submitted Name of Target Chain>


> <UniProt (TrEMBL) Entry Name of Target Chain>


> <UniProt (TrEMBL) Primary ID of Target Chain>


> <UniProt (TrEMBL) Secondary ID(s) of Target Chain>


> <UniProt (TrEMBL) Alternative ID(s) of Target Chain>


$$$$

  SciTegic12201717312D

 29 33  0  0  0  0            999 V2000
   10.7802   -5.8473    0.0000 O   0  0
   10.3034   -5.1857    0.0000 N   0  0
    9.5249   -5.4365    0.0000 C   0  0
    9.5208   -6.2537    0.0000 C   0  0
   10.2967   -6.5081    0.0000 N   0  0
    8.8138   -6.6587    0.0000 C   0  0
    8.1067   -6.2465    0.0000 C   0  0
    8.1067   -5.4294    0.0000 C   0  0
    8.8179   -5.0243    0.0000 C   0  0
    8.8220   -4.2071    0.0000 N   0  3
    9.5290   -3.8021    0.0000 O   0  0
    8.1149   -3.7950    0.0000 O   0  5
    8.8097   -7.4759    0.0000 N   0  0
    9.5167   -7.8880    0.0000 C   0  0
    9.5126   -8.7052    0.0000 C   0  0
    8.8056   -9.1102    0.0000 N   0  0
    8.0985   -8.6981    0.0000 C   0  0
    8.0985   -7.8809    0.0000 C   0  0
    8.7974  -11.5618    0.0000 N   0  0
    8.0904  -11.1496    0.0000 C   0  0
    8.0903  -10.3325    0.0000 C   0  0
    8.8015   -9.9274    0.0000 C   0  0
    9.5085  -10.3396    0.0000 C   0  0
   10.2155   -9.9304    0.0000 C   0  0
   10.9225  -10.3426    0.0000 C   0  0
   10.9184  -11.1597    0.0000 C   0  0
   10.2114  -11.5648    0.0000 C   0  0
    9.5044  -11.1568    0.0000 C   0  0
   11.6255  -11.5719    0.0000 Cl  0  0
  1  2  1  0
  2  3  2  0
  3  4  1  0
  4  5  2  0
  1  5  1  0
  6  7  2  0
  7  8  1  0
  8  9  2  0
  3  9  1  0
  4  6  1  0
 10 11  2  0
 10 12  1  0
  9 10  1  0
 13 14  1  0
 14 15  1  0
 15 16  1  0
 16 17  1  0
 17 18  1  0
 13 18  1  0
 19 20  2  0
 20 21  1  0
 21 22  2  0
 22 23  1  0
 23 24  2  0
 24 25  1  0
 25 26  2  0
 26 27  1  0
 27 28  2  0
 19 28  1  0
 23 28  1  0
 26 29  1  0
 16 22  1  0
  6 13  1  0
M  CHG  2  10   1  12  -1
M  END
> <From> 
www.bindingDB.org

> <BindingDB Reactant_set_id>
50528066

> <Ligand InChI>
InChI=1S/C19H15ClN6O3/c20-12-1-2-13-14(11-12)21-6-5-15(13)24-7-9-25(10-8-24)16-3-4-17(26(27)28)19-18(16)22-29-23-19/h1-6,11H,7-10H2

> <Ligand InChI Key>
PDXLBQVOKKKVMF-UHFFFAOYSA-N

> <BindingDB MonomerID>
50202021

> <BindingDB Ligand Name>
CHEMBL3893738

> <Target Name Assigned by Curator or DataSource>
DNA gyrase subunit B

> <Target Source Organism According to Curator or DataSource>


> <Ki (nM)>


> <IC50 (nM)>
 10300

> <Kd (nM)>


> <EC50 (nM)>


> <kon (M-1-s-1)>


> <koff (s-1)>


> <pH>


> <Temp C>


> <Curation/DataSource>
ChEMBL

> <Article DOI>
10.1016/j.ejmech.2016.06.042

> <PMID>
27371925

> <PubChem AID>


> <Patent Number>


> <Authors>
Jeankumar, VU; Reshma, RS; Vats, R; Janupally, R; Saxena, S; Yogeeswari, P; Sriram, D

> <Institution>
Birla Institute of Technology&amp; Science-Pilani

> <Link to Ligand in BindingDB>
http://www.bindingdb.org/bind/chemsearch/marvin/MolStructure.jsp?monomerid=50202021

> <Link to Ligand-Target Pair in BindingDB>
http://www.bindingdb.org/jsp/dbsearch/PrimarySearch_ki.jsp?energyterm=kJ/mole&tag=pol&polymerid=50006452&target=DNA+gyrase+subunit+B&column=ki&startPg=0&Increment=50&submit=Search

> <Link to Ligand-Target Pair in BindingDB>
http://www.bindingdb.org/jsp/dbsearch/PrimarySearch_ki.jsp?energyterm=kJ/mole&tag=r21&monomerid=50202021&enzyme=DNA+gyrase+subunit+B&column=ki&startPg=0&Increment=50&submit=Search

> <Ligand HET ID in PDB>


> <PDB ID(s) for Ligand-Target Complex>


> <PubChem CID>
134137404

> <PubChem SID>
375979580

> <ChEBI ID of Ligand>


> <ChEMBL ID of Ligand>


> <DrugBank ID of Ligand>


> <IUPHAR_GRAC ID of Ligand>


> <KEGG ID of Ligand>


> <ZINC ID of Ligand>


> <Number of Protein Chains in Target (>1 implies a multichain complex)>
1

> <BindingDB Target Chain Sequence>
MAAQKNNAPKEYGADSITILEGLEAVRKRPGMYIGSTGERGLHHLIWEVVDNAVDEAMAGFATRVDVKIHADGSVEVRDDGRGIPVEMHATGMPTIDVVMTQLHAGGKFDGETYAVSGGLHGVGVSVVNALSTRLEATVLRDGYEWFQYYDRSVPGKLKQGGETKETGTTIRFWADPEIFETTDYNFETVARRLQEMAFLNKGLTIELTDERVTAEEVVDDVVKDTAEAPKTADEKAAEATGPSKVKHRVFHYPGGLVDYVKHINRTKTPIQQSIIDFDGKGPGHEVEIAMQWNAGYSESVHTFANTINTHEGGTHEEGFRAALTSVVNRYAKDKKLLKDKDPNLTGDDIREGLAAVISVKVAEPQFEGQTKTKLGNTEVKSFVQKICNEQLQHWFEANPAEAKTVVNKAVSSAQARIAARKARELVRRKSATDIGGLPGKLADCRSTDPSKSELYVVEGDSAGGSAKSGRDSMFQAILPLRGKIINVEKARIDRVLKNTEVQSIITALGTGIHDEFDISKLRYHKIVLMADADVDGQHISTLLLTLLFRFMKPLVENGHIFLAQPPLYKLKWQRSEPEFAYSDRERDGLLEAGRAAGKKINVDDGIQRYKGLGEMDAKELWETTMDPSVRVLRQVTLDDAAAADELFSILMGEDVEARRSFITRNAKDVRFLDV

> <PDB ID(s) of Target Chain>
4BAE

> <UniProt (SwissProt) Recommended Name of Target Chain>
DNA gyrase subunit B

> <UniProt (SwissProt) Entry Name of Target Chain>
GYRB_MYCSM

> <UniProt (SwissProt) Primary ID of Target Chain>
P0C559

> <UniProt (SwissProt) Secondary ID(s) of Target Chain>
P48355,Q59555

> <UniProt (SwissProt) Alternative ID(s) of Target Chain>


> <UniProt (TrEMBL) Submitted Name of Target Chain>


> <UniProt (TrEMBL) Entry Name of Target Chain>


> <UniProt (TrEMBL) Primary ID of Target Chain>


> <UniProt (TrEMBL) Secondary ID(s) of Target Chain>


> <UniProt (TrEMBL) Alternative ID(s) of Target Chain>


$$$$

  SciTegic04201612532D

 33 36  0  0  0  0            999 V2000
   -1.2964    1.4973    0.0000 N   0  0
   -2.6111    0.7486    0.0000 C   0  0
   -2.6111   -0.7486    0.0000 C   0  0
   -1.2964   -1.4973    0.0000 C   0  0
    0.0000   -0.7486    0.0000 C   0  0
    1.2964   -1.4973    0.0000 C   0  0
    2.5929   -0.7486    0.0000 C   0  0
    2.5929    0.7486    0.0000 C   0  0
    1.2964    1.4973    0.0000 C   0  0
    0.0000    0.7486    0.0000 C   0  0
   -3.9122   -1.4966    0.0000 C   0  0
   -3.9138   -2.4966    0.0000 O   0  0
   -5.2109   -0.7445    0.0000 N   0  0
   -1.2907   -2.9981    0.0000 N   0  0
   -2.5870   -3.7544    0.0000 C   0  0
   -2.5835   -5.2544    0.0000 C   0  0
   -3.8807   -6.0076    0.0000 C   0  0
   -5.1815   -5.2608    0.0000 C   0  0
   -5.1852   -3.7608    0.0000 C   0  0
   -3.8880   -3.0076    0.0000 C   0  0
   -6.4810   -6.0117    0.0000 O   0  0
   -7.7815   -5.2626    0.0000 C   0  0
   -9.0810   -6.0135    0.0000 C   0  0
  -10.3815   -5.2644    0.0000 C   0  0
  -14.2755   -7.5217    0.0000 O   0  0
  -14.2791   -6.0217    0.0000 C   0  0
  -12.9819   -5.2686    0.0000 C   0  0
  -11.6810   -6.0154    0.0000 N   0  0
  -11.6774   -7.5154    0.0000 C   0  0
  -12.9746   -8.2686    0.0000 C   0  0
   -6.2513   -1.3425    0.0000 N   0  0
    3.8942   -1.4964    0.0000 O   0  0
    4.9326   -0.8949    0.0000 C   0  0
  1  2  2  0
  2  3  1  0
  3  4  2  0
  4  5  1  0
  5  6  2  0
  6  7  1  0
  7  8  2  0
  8  9  1  0
  9 10  2  0
  1 10  1  0
  5 10  1  0
 11 12  2  0
 11 13  1  0
  3 11  1  0
 15 16  1  0
 16 17  2  0
 17 18  1  0
 18 19  2  0
 19 20  1  0
 15 20  2  0
 22 23  1  0
 23 24  1  0
 21 22  1  0
 25 26  1  0
 26 27  1  0
 27 28  1  0
 28 29  1  0
 29 30  1  0
 25 30  1  0
 24 28  1  0
 18 21  1  0
 14 15  1  0
  4 14  1  0
 13 31  1  0
 32 33  1  0
  7 32  1  0
M  END
> <From> 
www.bindingDB.org

> <BindingDB Reactant_set_id>
50426777

> <Ligand InChI>
InChI=1S/C24H29N5O4/c1-31-19-7-8-22-20(15-19)23(21(16-26-22)24(30)28-25)27-17-3-5-18(6-4-17)33-12-2-9-29-10-13-32-14-11-29/h3-8,15-16H,2,9-14,25H2,1H3,(H,26,27)(H,28,30)

> <Ligand InChI Key>
AASWTIYLHGPPPM-UHFFFAOYSA-N

> <BindingDB MonomerID>
50126796

> <BindingDB Ligand Name>
CHEMBL3628441

> <Target Name Assigned by Curator or DataSource>
DNA gyrase subunit B

> <Target Source Organism According to Curator or DataSource>


> <Ki (nM)>


> <IC50 (nM)>
 10580

> <Kd (nM)>


> <EC50 (nM)>


> <kon (M-1-s-1)>


> <koff (s-1)>


> <pH>


> <Temp C>


> <Curation/DataSource>
ChEMBL

> <Article DOI>
10.1016/j.ejmech.2015.06.032

> <PMID>
26318054

> <PubChem AID>


> <Patent Number>


> <Authors>
Medapi, B; Suryadevara, P; Renuka, J; Sridevi, JP; Yogeeswari, P; Sriram, D

> <Institution>
Birla Institute of Technology&amp;Science

> <Link to Ligand in BindingDB>
http://www.bindingdb.org/bind/chemsearch/marvin/MolStructure.jsp?monomerid=50126796

> <Link to Ligand-Target Pair in BindingDB>
http://www.bindingdb.org/jsp/dbsearch/PrimarySearch_ki.jsp?energyterm=kJ/mole&tag=pol&polymerid=50006452&target=DNA+gyrase+subunit+B&column=ki&startPg=0&Increment=50&submit=Search

> <Link to Ligand-Target Pair in BindingDB>
http://www.bindingdb.org/jsp/dbsearch/PrimarySearch_ki.jsp?energyterm=kJ/mole&tag=r21&monomerid=50126796&enzyme=DNA+gyrase+subunit+B&column=ki&startPg=0&Increment=50&submit=Search

> <Ligand HET ID in PDB>


> <PDB ID(s) for Ligand-Target Complex>


> <PubChem CID>
122193454

> <PubChem SID>
321902398

> <ChEBI ID of Ligand>


> <ChEMBL ID of Ligand>


> <DrugBank ID of Ligand>


> <IUPHAR_GRAC ID of Ligand>


> <KEGG ID of Ligand>


> <ZINC ID of Ligand>


> <Number of Protein Chains in Target (>1 implies a multichain complex)>
1

> <BindingDB Target Chain Sequence>
MAAQKNNAPKEYGADSITILEGLEAVRKRPGMYIGSTGERGLHHLIWEVVDNAVDEAMAGFATRVDVKIHADGSVEVRDDGRGIPVEMHATGMPTIDVVMTQLHAGGKFDGETYAVSGGLHGVGVSVVNALSTRLEATVLRDGYEWFQYYDRSVPGKLKQGGETKETGTTIRFWADPEIFETTDYNFETVARRLQEMAFLNKGLTIELTDERVTAEEVVDDVVKDTAEAPKTADEKAAEATGPSKVKHRVFHYPGGLVDYVKHINRTKTPIQQSIIDFDGKGPGHEVEIAMQWNAGYSESVHTFANTINTHEGGTHEEGFRAALTSVVNRYAKDKKLLKDKDPNLTGDDIREGLAAVISVKVAEPQFEGQTKTKLGNTEVKSFVQKICNEQLQHWFEANPAEAKTVVNKAVSSAQARIAARKARELVRRKSATDIGGLPGKLADCRSTDPSKSELYVVEGDSAGGSAKSGRDSMFQAILPLRGKIINVEKARIDRVLKNTEVQSIITALGTGIHDEFDISKLRYHKIVLMADADVDGQHISTLLLTLLFRFMKPLVENGHIFLAQPPLYKLKWQRSEPEFAYSDRERDGLLEAGRAAGKKINVDDGIQRYKGLGEMDAKELWETTMDPSVRVLRQVTLDDAAAADELFSILMGEDVEARRSFITRNAKDVRFLDV

> <PDB ID(s) of Target Chain>
4BAE

> <UniProt (SwissProt) Recommended Name of Target Chain>
DNA gyrase subunit B

> <UniProt (SwissProt) Entry Name of Target Chain>
GYRB_MYCSM

> <UniProt (SwissProt) Primary ID of Target Chain>
P0C559

> <UniProt (SwissProt) Secondary ID(s) of Target Chain>
P48355,Q59555

> <UniProt (SwissProt) Alternative ID(s) of Target Chain>


> <UniProt (TrEMBL) Submitted Name of Target Chain>


> <UniProt (TrEMBL) Entry Name of Target Chain>


> <UniProt (TrEMBL) Primary ID of Target Chain>


> <UniProt (TrEMBL) Secondary ID(s) of Target Chain>


> <UniProt (TrEMBL) Alternative ID(s) of Target Chain>


$$$$

  SciTegic10241708132D

 32 35  0  0  0  0            999 V2000
    2.5822  -10.9990    0.0000 C   0  0
    2.5811  -11.8186    0.0000 C   0  0
    3.2891  -12.2275    0.0000 C   0  0
    3.2873  -10.5902    0.0000 C   0  0
    3.9960  -10.9954    0.0000 C   0  0
    4.0008  -11.8186    0.0000 C   0  0
    4.7852  -12.0684    0.0000 N   0  0
    5.2652  -11.3996    0.0000 C   0  0
    4.7773  -10.7365    0.0000 C   0  0
    5.0253   -9.9579    0.0000 O   0  0
    6.0823  -11.3948    0.0000 O   0  0
    5.0422  -12.8441    0.0000 C   0  0
    4.4990  -13.4546    0.0000 C   0  0
    4.7560  -14.2303    0.0000 N   0  0
    4.2156  -14.8391    0.0000 C   0  0
    4.4696  -15.6120    0.0000 C   0  0
    5.2694  -15.7815    0.0000 N   0  0
    5.8148  -15.1716    0.0000 C   0  0
    5.5604  -14.3923    0.0000 C   0  0
    5.5235  -16.5581    0.0000 N   0  0
    6.3232  -16.7264    0.0000 C   0  0
    6.8688  -16.1180    0.0000 C   0  0
    7.6676  -16.2900    0.0000 C   0  0
    8.2129  -15.6824    0.0000 C   0  0
    7.9589  -14.9048    0.0000 C   0  0
    7.1546  -14.7382    0.0000 C   0  0
    6.6128  -15.3471    0.0000 C   0  0
    7.9197  -17.0673    0.0000 C   0  0
    7.3726  -17.6743    0.0000 F   0  0
    8.7189  -17.2376    0.0000 F   0  0
    8.1265  -17.8544    0.0000 F   0  0
    1.8744  -10.5906    0.0000 F   0  0
  1  2  2  0
  2  3  1  0
  3  6  2  0
  5  4  2  0
  4  1  1  0
  5  6  1  0
  6  7  1  0
  7  8  1  0
  8  9  1  0
  9  5  1  0
  9 10  2  0
  8 11  2  0
  7 12  1  0
 12 13  1  0
 13 14  1  0
 14 15  1  0
 14 19  1  0
 15 16  1  0
 16 17  1  0
 17 18  1  0
 18 19  1  0
 17 20  1  0
 20 21  1  0
 21 22  1  0
 22 23  2  0
 23 24  1  0
 24 25  2  0
 25 26  1  0
 26 27  2  0
 27 22  1  0
 23 28  1  0
 28 29  1  0
 28 30  1  0
 28 31  1  0
  1 32  1  0
M  END
> <From> 
www.bindingDB.org

> <BindingDB Reactant_set_id>
50543815

> <Ligand InChI>
InChI=1S/C22H22F4N4O2/c23-16-5-6-19-17(13-16)20(31)21(32)30(19)12-9-28-7-10-29(11-8-28)27-14-15-3-1-2-4-18(15)22(24,25)26/h1-6,13,27H,7-12,14H2

> <Ligand InChI Key>
QAMHMSCCXIMHAG-UHFFFAOYSA-N

> <BindingDB MonomerID>
50208282

> <BindingDB Ligand Name>
CHEMBL3885169

> <Target Name Assigned by Curator or DataSource>
DNA gyrase subunit B

> <Target Source Organism According to Curator or DataSource>


> <Ki (nM)>


> <IC50 (nM)>
 10600

> <Kd (nM)>


> <EC50 (nM)>


> <kon (M-1-s-1)>


> <koff (s-1)>


> <pH>


> <Temp C>


> <Curation/DataSource>
ChEMBL

> <Article DOI>
10.1016/j.ejmech.2016.08.034

> <PMID>
27569197

> <PubChem AID>


> <Patent Number>


> <Authors>
Chaudhari, K; Surana, S; Jain, P; Patel, HM

> <Institution>
R. C. Patel Institute of Pharmaceutical Education and Research

> <Link to Ligand in BindingDB>
http://www.bindingdb.org/bind/chemsearch/marvin/MolStructure.jsp?monomerid=50208282

> <Link to Ligand-Target Pair in BindingDB>
http://www.bindingdb.org/jsp/dbsearch/PrimarySearch_ki.jsp?energyterm=kJ/mole&tag=pol&polymerid=50006452&target=DNA+gyrase+subunit+B&column=ki&startPg=0&Increment=50&submit=Search

> <Link to Ligand-Target Pair in BindingDB>
http://www.bindingdb.org/jsp/dbsearch/PrimarySearch_ki.jsp?energyterm=kJ/mole&tag=r21&monomerid=50208282&enzyme=DNA+gyrase+subunit+B&column=ki&startPg=0&Increment=50&submit=Search

> <Ligand HET ID in PDB>


> <PDB ID(s) for Ligand-Target Complex>


> <PubChem CID>
134130679

> <PubChem SID>
375981975

> <ChEBI ID of Ligand>


> <ChEMBL ID of Ligand>


> <DrugBank ID of Ligand>


> <IUPHAR_GRAC ID of Ligand>


> <KEGG ID of Ligand>


> <ZINC ID of Ligand>


> <Number of Protein Chains in Target (>1 implies a multichain complex)>
1

> <BindingDB Target Chain Sequence>
MAAQKNNAPKEYGADSITILEGLEAVRKRPGMYIGSTGERGLHHLIWEVVDNAVDEAMAGFATRVDVKIHADGSVEVRDDGRGIPVEMHATGMPTIDVVMTQLHAGGKFDGETYAVSGGLHGVGVSVVNALSTRLEATVLRDGYEWFQYYDRSVPGKLKQGGETKETGTTIRFWADPEIFETTDYNFETVARRLQEMAFLNKGLTIELTDERVTAEEVVDDVVKDTAEAPKTADEKAAEATGPSKVKHRVFHYPGGLVDYVKHINRTKTPIQQSIIDFDGKGPGHEVEIAMQWNAGYSESVHTFANTINTHEGGTHEEGFRAALTSVVNRYAKDKKLLKDKDPNLTGDDIREGLAAVISVKVAEPQFEGQTKTKLGNTEVKSFVQKICNEQLQHWFEANPAEAKTVVNKAVSSAQARIAARKARELVRRKSATDIGGLPGKLADCRSTDPSKSELYVVEGDSAGGSAKSGRDSMFQAILPLRGKIINVEKARIDRVLKNTEVQSIITALGTGIHDEFDISKLRYHKIVLMADADVDGQHISTLLLTLLFRFMKPLVENGHIFLAQPPLYKLKWQRSEPEFAYSDRERDGLLEAGRAAGKKINVDDGIQRYKGLGEMDAKELWETTMDPSVRVLRQVTLDDAAAADELFSILMGEDVEARRSFITRNAKDVRFLDV

> <PDB ID(s) of Target Chain>
4BAE

> <UniProt (SwissProt) Recommended Name of Target Chain>
DNA gyrase subunit B

> <UniProt (SwissProt) Entry Name of Target Chain>
GYRB_MYCSM

> <UniProt (SwissProt) Primary ID of Target Chain>
P0C559

> <UniProt (SwissProt) Secondary ID(s) of Target Chain>
P48355,Q59555

> <UniProt (SwissProt) Alternative ID(s) of Target Chain>


> <UniProt (TrEMBL) Submitted Name of Target Chain>


> <UniProt (TrEMBL) Entry Name of Target Chain>


> <UniProt (TrEMBL) Primary ID of Target Chain>


> <UniProt (TrEMBL) Secondary ID(s) of Target Chain>


> <UniProt (TrEMBL) Alternative ID(s) of Target Chain>


$$$$

  SciTegic12241710002D

 27 30  0  0  0  0            999 V2000
   12.2966   -5.0800    0.0000 N   0  0
   11.5832   -5.4779    0.0000 C   0  0
   11.5702   -6.2950    0.0000 C   0  0
   12.2748   -6.7142    0.0000 N   0  0
   12.9882   -6.3163    0.0000 C   0  0
   12.9970   -5.4992    0.0000 C   0  0
   12.3054   -4.2629    0.0000 C   0  0
   13.0188   -3.8651    0.0000 N   0  0
   11.6049   -3.8437    0.0000 S   0  0
   13.0317   -3.0480    0.0000 C   0  0
   13.7451   -2.6460    0.0000 C   0  0
   13.7580   -1.8289    0.0000 C   0  0
   13.0535   -1.4138    0.0000 C   0  0
   12.3401   -1.8117    0.0000 C   0  0
   12.3312   -2.6288    0.0000 C   0  0
   12.2401   -9.1654    0.0000 N   0  0
   12.9535   -8.7675    0.0000 C   0  0
   12.9623   -7.9504    0.0000 C   0  0
   12.2619   -7.5312    0.0000 C   0  0
   11.5485   -7.9291    0.0000 C   0  0
   10.8480   -7.5099    0.0000 C   0  0
   10.1346   -7.9078    0.0000 C   0  0
   10.1217   -8.7290    0.0000 C   0  0
   10.8221   -9.1441    0.0000 C   0  0
   11.5397   -8.7462    0.0000 C   0  0
    9.4083   -9.1269    0.0000 Cl  0  0
   13.0631   -0.5967    0.0000 Cl  0  0
  1  2  1  0
  2  3  1  0
  3  4  1  0
  4  5  1  0
  5  6  1  0
  1  6  1  0
  7  8  1  0
  7  9  2  0
  1  7  1  0
 10 11  1  0
 11 12  2  0
 12 13  1  0
 13 14  2  0
 14 15  1  0
 10 15  2  0
  8 10  1  0
 16 17  2  0
 17 18  1  0
 18 19  2  0
 19 20  1  0
 20 21  2  0
 21 22  1  0
 22 23  2  0
 23 24  1  0
 24 25  2  0
 16 25  1  0
 20 25  1  0
 23 26  1  0
  4 19  1  0
 13 27  1  0
M  END
> <From> 
www.bindingDB.org

> <BindingDB Reactant_set_id>
50528068

> <Ligand InChI>
InChI=1S/C20H18Cl2N4S/c21-14-1-4-16(5-2-14)24-20(27)26-11-9-25(10-12-26)19-7-8-23-18-13-15(22)3-6-17(18)19/h1-8,13H,9-12H2,(H,24,27)

> <Ligand InChI Key>
QGMUOKONHHLBLX-UHFFFAOYSA-N

> <BindingDB MonomerID>
50202116

> <BindingDB Ligand Name>
CHEMBL3986544

> <Target Name Assigned by Curator or DataSource>
DNA gyrase subunit B

> <Target Source Organism According to Curator or DataSource>


> <Ki (nM)>


> <IC50 (nM)>
 10700

> <Kd (nM)>


> <EC50 (nM)>


> <kon (M-1-s-1)>


> <koff (s-1)>


> <pH>


> <Temp C>


> <Curation/DataSource>
ChEMBL

> <Article DOI>
10.1016/j.ejmech.2016.06.042

> <PMID>
27371925

> <PubChem AID>


> <Patent Number>


> <Authors>
Jeankumar, VU; Reshma, RS; Vats, R; Janupally, R; Saxena, S; Yogeeswari, P; Sriram, D

> <Institution>
Birla Institute of Technology&amp; Science-Pilani

> <Link to Ligand in BindingDB>
http://www.bindingdb.org/bind/chemsearch/marvin/MolStructure.jsp?monomerid=50202116

> <Link to Ligand-Target Pair in BindingDB>
http://www.bindingdb.org/jsp/dbsearch/PrimarySearch_ki.jsp?energyterm=kJ/mole&tag=pol&polymerid=50006452&target=DNA+gyrase+subunit+B&column=ki&startPg=0&Increment=50&submit=Search

> <Link to Ligand-Target Pair in BindingDB>
http://www.bindingdb.org/jsp/dbsearch/PrimarySearch_ki.jsp?energyterm=kJ/mole&tag=r21&monomerid=50202116&enzyme=DNA+gyrase+subunit+B&column=ki&startPg=0&Increment=50&submit=Search

> <Ligand HET ID in PDB>


> <PDB ID(s) for Ligand-Target Complex>


> <PubChem CID>
134156436

> <PubChem SID>
375979581

> <ChEBI ID of Ligand>


> <ChEMBL ID of Ligand>


> <DrugBank ID of Ligand>


> <IUPHAR_GRAC ID of Ligand>


> <KEGG ID of Ligand>


> <ZINC ID of Ligand>


> <Number of Protein Chains in Target (>1 implies a multichain complex)>
1

> <BindingDB Target Chain Sequence>
MAAQKNNAPKEYGADSITILEGLEAVRKRPGMYIGSTGERGLHHLIWEVVDNAVDEAMAGFATRVDVKIHADGSVEVRDDGRGIPVEMHATGMPTIDVVMTQLHAGGKFDGETYAVSGGLHGVGVSVVNALSTRLEATVLRDGYEWFQYYDRSVPGKLKQGGETKETGTTIRFWADPEIFETTDYNFETVARRLQEMAFLNKGLTIELTDERVTAEEVVDDVVKDTAEAPKTADEKAAEATGPSKVKHRVFHYPGGLVDYVKHINRTKTPIQQSIIDFDGKGPGHEVEIAMQWNAGYSESVHTFANTINTHEGGTHEEGFRAALTSVVNRYAKDKKLLKDKDPNLTGDDIREGLAAVISVKVAEPQFEGQTKTKLGNTEVKSFVQKICNEQLQHWFEANPAEAKTVVNKAVSSAQARIAARKARELVRRKSATDIGGLPGKLADCRSTDPSKSELYVVEGDSAGGSAKSGRDSMFQAILPLRGKIINVEKARIDRVLKNTEVQSIITALGTGIHDEFDISKLRYHKIVLMADADVDGQHISTLLLTLLFRFMKPLVENGHIFLAQPPLYKLKWQRSEPEFAYSDRERDGLLEAGRAAGKKINVDDGIQRYKGLGEMDAKELWETTMDPSVRVLRQVTLDDAAAADELFSILMGEDVEARRSFITRNAKDVRFLDV

> <PDB ID(s) of Target Chain>
4BAE

> <UniProt (SwissProt) Recommended Name of Target Chain>
DNA gyrase subunit B

> <UniProt (SwissProt) Entry Name of Target Chain>
GYRB_MYCSM

> <UniProt (SwissProt) Primary ID of Target Chain>
P0C559

> <UniProt (SwissProt) Secondary ID(s) of Target Chain>
P48355,Q59555

> <UniProt (SwissProt) Alternative ID(s) of Target Chain>


> <UniProt (TrEMBL) Submitted Name of Target Chain>


> <UniProt (TrEMBL) Entry Name of Target Chain>


> <UniProt (TrEMBL) Primary ID of Target Chain>


> <UniProt (TrEMBL) Secondary ID(s) of Target Chain>


> <UniProt (TrEMBL) Alternative ID(s) of Target Chain>


$$$$

  Mrv0541 11171616332D          

 30 33  0  0  0  0            999 V2000
   12.9713   -7.7030    0.0000 O   0  0  0  0  0  0  0  0  0  0  0  0
   13.4561   -7.0355    0.0000 C   0  0  0  0  0  0  0  0  0  0  0  0
   12.9713   -6.3681    0.0000 C   0  0  0  0  0  0  0  0  0  0  0  0
   12.1866   -6.6230    0.0000 C   0  0  0  0  0  0  0  0  0  0  0  0
   12.1866   -7.4480    0.0000 C   0  0  0  0  0  0  0  0  0  0  0  0
   11.4722   -6.2105    0.0000 C   0  0  0  0  0  0  0  0  0  0  0  0
   10.7577   -6.6230    0.0000 C   0  0  0  0  0  0  0  0  0  0  0  0
   10.7577   -7.4480    0.0000 C   0  0  0  0  0  0  0  0  0  0  0  0
   11.4722   -7.8605    0.0000 C   0  0  0  0  0  0  0  0  0  0  0  0
   14.2812   -7.0355    0.0000 C   0  0  0  0  0  0  0  0  0  0  0  0
   14.6937   -7.7500    0.0000 O   0  0  0  0  0  0  0  0  0  0  0  0
   14.6937   -6.3211    0.0000 O   0  0  0  0  0  0  0  0  0  0  0  0
   10.0432   -6.2105    0.0000 N   0  0  0  0  0  0  0  0  0  0  0  0
    9.3288   -6.6230    0.0000 C   0  0  0  0  0  0  0  0  0  0  0  0
    8.6142   -6.2105    0.0000 C   0  0  0  0  0  0  0  0  0  0  0  0
    8.6142   -5.3855    0.0000 N   0  0  0  0  0  0  0  0  0  0  0  0
    9.3288   -4.9730    0.0000 C   0  0  0  0  0  0  0  0  0  0  0  0
   10.0432   -5.3855    0.0000 C   0  0  0  0  0  0  0  0  0  0  0  0
    7.8997   -4.9730    0.0000 C   0  0  0  0  0  0  0  0  0  0  0  0
    7.1853   -5.3855    0.0000 C   0  0  0  0  0  0  0  0  0  0  0  0
    7.1853   -6.2105    0.0000 C   0  0  0  0  0  0  0  0  0  0  0  0
    6.4708   -6.6230    0.0000 C   0  0  0  0  0  0  0  0  0  0  0  0
    5.7563   -6.2105    0.0000 C   0  0  0  0  0  0  0  0  0  0  0  0
    5.7563   -5.3855    0.0000 C   0  0  0  0  0  0  0  0  0  0  0  0
    6.4708   -4.9730    0.0000 C   0  0  0  0  0  0  0  0  0  0  0  0
    7.8997   -4.1480    0.0000 O   0  0  0  0  0  0  0  0  0  0  0  0
    6.4708   -4.1480    0.0000 Cl  0  0  0  0  0  0  0  0  0  0  0  0
    7.8997   -6.6230    0.0000 Cl  0  0  0  0  0  0  0  0  0  0  0  0
   15.5187   -6.3211    0.0000 C   0  0  0  0  0  0  0  0  0  0  0  0
   15.9312   -5.6066    0.0000 C   0  0  0  0  0  0  0  0  0  0  0  0
  1  2  4  0  0  0  0
  2  3  4  0  0  0  0
  3  4  4  0  0  0  0
  4  5  4  0  0  0  0
  1  5  4  0  0  0  0
  6  7  4  0  0  0  0
  7  8  4  0  0  0  0
  8  9  4  0  0  0  0
  5  9  4  0  0  0  0
  4  6  4  0  0  0  0
 10 11  2  0  0  0  0
 10 12  1  0  0  0  0
  2 10  1  0  0  0  0
 13 14  1  0  0  0  0
 14 15  1  0  0  0  0
 15 16  1  0  0  0  0
 16 17  1  0  0  0  0
 17 18  1  0  0  0  0
 13 18  1  0  0  0  0
 19 20  1  0  0  0  0
 20 21  4  0  0  0  0
 21 22  4  0  0  0  0
 22 23  4  0  0  0  0
 23 24  4  0  0  0  0
 24 25  4  0  0  0  0
 20 25  4  0  0  0  0
 19 26  2  0  0  0  0
 25 27  1  0  0  0  0
 21 28  1  0  0  0  0
 16 19  1  0  0  0  0
  7 13  1  0  0  0  0
 29 30  1  0  0  0  0
 12 29  1  0  0  0  0
M  END
> <From> 
www.bindingDB.org

> <BindingDB Reactant_set_id>
50369855

> <Ligand InChI>
InChI=1S/C22H20Cl2N2O4/c1-2-29-22(28)19-13-14-12-15(6-7-18(14)30-19)25-8-10-26(11-9-25)21(27)20-16(23)4-3-5-17(20)24/h3-7,12-13H,2,8-11H2,1H3

> <Ligand InChI Key>
AIWJSZPTYZKHGS-UHFFFAOYSA-N

> <BindingDB MonomerID>
50100638

> <BindingDB Ligand Name>
CHEMBL3323249

> <Target Name Assigned by Curator or DataSource>
DNA gyrase subunit B

> <Target Source Organism According to Curator or DataSource>


> <Ki (nM)>


> <IC50 (nM)>
 10700

> <Kd (nM)>


> <EC50 (nM)>


> <kon (M-1-s-1)>


> <koff (s-1)>


> <pH>


> <Temp C>


> <Curation/DataSource>
ChEMBL

> <Article DOI>
10.1016/j.bmc.2014.06.041

> <PMID>
25129171

> <PubChem AID>


> <Patent Number>


> <Authors>
Renuka, J; Reddy, KI; Srihari, K; Jeankumar, VU; Shravan, M; Sridevi, JP; Yogeeswari, P; Babu, KS; Sriram, D

> <Institution>
Institute of Technology&amp; Science-Pilani

> <Link to Ligand in BindingDB>
http://www.bindingdb.org/bind/chemsearch/marvin/MolStructure.jsp?monomerid=50100638

> <Link to Ligand-Target Pair in BindingDB>
http://www.bindingdb.org/jsp/dbsearch/PrimarySearch_ki.jsp?energyterm=kJ/mole&tag=pol&polymerid=50006452&target=DNA+gyrase+subunit+B&column=ki&startPg=0&Increment=50&submit=Search

> <Link to Ligand-Target Pair in BindingDB>
http://www.bindingdb.org/jsp/dbsearch/PrimarySearch_ki.jsp?energyterm=kJ/mole&tag=r21&monomerid=50100638&enzyme=DNA+gyrase+subunit+B&column=ki&startPg=0&Increment=50&submit=Search

> <Ligand HET ID in PDB>


> <PDB ID(s) for Ligand-Target Complex>


> <PubChem CID>
118710630

> <PubChem SID>
318490747

> <ChEBI ID of Ligand>


> <ChEMBL ID of Ligand>


> <DrugBank ID of Ligand>


> <IUPHAR_GRAC ID of Ligand>


> <KEGG ID of Ligand>


> <ZINC ID of Ligand>


> <Number of Protein Chains in Target (>1 implies a multichain complex)>
1

> <BindingDB Target Chain Sequence>
MAAQKNNAPKEYGADSITILEGLEAVRKRPGMYIGSTGERGLHHLIWEVVDNAVDEAMAGFATRVDVKIHADGSVEVRDDGRGIPVEMHATGMPTIDVVMTQLHAGGKFDGETYAVSGGLHGVGVSVVNALSTRLEATVLRDGYEWFQYYDRSVPGKLKQGGETKETGTTIRFWADPEIFETTDYNFETVARRLQEMAFLNKGLTIELTDERVTAEEVVDDVVKDTAEAPKTADEKAAEATGPSKVKHRVFHYPGGLVDYVKHINRTKTPIQQSIIDFDGKGPGHEVEIAMQWNAGYSESVHTFANTINTHEGGTHEEGFRAALTSVVNRYAKDKKLLKDKDPNLTGDDIREGLAAVISVKVAEPQFEGQTKTKLGNTEVKSFVQKICNEQLQHWFEANPAEAKTVVNKAVSSAQARIAARKARELVRRKSATDIGGLPGKLADCRSTDPSKSELYVVEGDSAGGSAKSGRDSMFQAILPLRGKIINVEKARIDRVLKNTEVQSIITALGTGIHDEFDISKLRYHKIVLMADADVDGQHISTLLLTLLFRFMKPLVENGHIFLAQPPLYKLKWQRSEPEFAYSDRERDGLLEAGRAAGKKINVDDGIQRYKGLGEMDAKELWETTMDPSVRVLRQVTLDDAAAADELFSILMGEDVEARRSFITRNAKDVRFLDV

> <PDB ID(s) of Target Chain>
4BAE

> <UniProt (SwissProt) Recommended Name of Target Chain>
DNA gyrase subunit B

> <UniProt (SwissProt) Entry Name of Target Chain>
GYRB_MYCSM

> <UniProt (SwissProt) Primary ID of Target Chain>
P0C559

> <UniProt (SwissProt) Secondary ID(s) of Target Chain>
P48355,Q59555

> <UniProt (SwissProt) Alternative ID(s) of Target Chain>


> <UniProt (TrEMBL) Submitted Name of Target Chain>


> <UniProt (TrEMBL) Entry Name of Target Chain>


> <UniProt (TrEMBL) Primary ID of Target Chain>


> <UniProt (TrEMBL) Secondary ID(s) of Target Chain>


> <UniProt (TrEMBL) Alternative ID(s) of Target Chain>


$$$$

  Mrv0541 04171609262D          

 25 27  0  0  0  0            999 V2000
    0.7145   -0.4125    0.0000 C   0  0  0  0  0  0  0  0  0  0  0  0
    0.7145    0.4125    0.0000 C   0  0  0  0  0  0  0  0  0  0  0  0
    0.0000    0.8250    0.0000 C   0  0  0  0  0  0  0  0  0  0  0  0
   -0.7145    0.4125    0.0000 C   0  0  0  0  0  0  0  0  0  0  0  0
   -0.7145   -0.4125    0.0000 C   0  0  0  0  0  0  0  0  0  0  0  0
    0.0000   -0.8250    0.0000 C   0  0  0  0  0  0  0  0  0  0  0  0
   -1.4293   -0.8252    0.0000 C   0  0  0  0  0  0  0  0  0  0  0  0
   -2.1731   -0.4848    0.0000 S   0  0  0  0  0  0  0  0  0  0  0  0
   -2.7242   -1.0988    0.0000 C   0  0  0  0  0  0  0  0  0  0  0  0
   -2.3106   -1.8127    0.0000 C   0  0  0  0  0  0  0  0  0  0  0  0
   -1.5039   -1.6399    0.0000 C   0  0  0  0  0  0  0  0  0  0  0  0
   -2.6430   -2.5667    0.0000 C   0  0  0  0  0  0  0  0  0  0  0  0
   -2.2534   -3.0995    0.0000 O   0  0  0  0  0  0  0  0  0  0  0  0
   -3.2991   -2.6378    0.0000 N   0  0  0  0  0  0  0  0  0  0  0  0
   -3.5437   -1.0123    0.0000 N   0  0  0  0  0  0  0  0  0  0  0  0
   -3.8796   -0.2582    0.0000 C   0  0  0  0  0  0  0  0  0  0  0  0
   -4.7005   -0.1715    0.0000 N   0  0  0  0  0  0  0  0  0  0  0  0
   -3.4916    0.2757    0.0000 O   0  0  0  0  0  0  0  0  0  0  0  0
   -5.0363    0.5825    0.0000 C   0  0  0  0  0  0  0  0  0  0  0  0
   -5.8573    0.6692    0.0000 C   0  0  0  0  0  0  0  0  0  0  0  0
   -6.1940    1.4223    0.0000 C   0  0  0  0  0  0  0  0  0  0  0  0
   -7.0146    1.5073    0.0000 C   0  0  0  0  0  0  0  0  0  0  0  0
   -7.4985    0.8391    0.0000 C   0  0  0  0  0  0  0  0  0  0  0  0
   -7.1618    0.0860    0.0000 C   0  0  0  0  0  0  0  0  0  0  0  0
   -6.3412    0.0010    0.0000 C   0  0  0  0  0  0  0  0  0  0  0  0
  1  2  4  0  0  0  0
  2  3  4  0  0  0  0
  3  4  4  0  0  0  0
  4  5  4  0  0  0  0
  5  6  4  0  0  0  0
  6  1  4  0  0  0  0
  7  8  4  0  0  0  0
  8  9  4  0  0  0  0
  9 10  4  0  0  0  0
 10 11  4  0  0  0  0
 11  7  4  0  0  0  0
  5  7  1  0  0  0  0
 10 12  1  0  0  0  0
 12 13  2  0  0  0  0
 12 14  1  0  0  0  0
  9 15  1  0  0  0  0
 15 16  1  0  0  0  0
 16 17  1  0  0  0  0
 16 18  2  0  0  0  0
 17 19  1  0  0  0  0
 20 19  1  0  0  0  0
 20 21  4  0  0  0  0
 21 22  4  0  0  0  0
 22 23  4  0  0  0  0
 23 24  4  0  0  0  0
 24 25  4  0  0  0  0
 25 20  4  0  0  0  0
M  END
> <From> 
www.bindingDB.org

> <BindingDB Reactant_set_id>
50302321

> <Ligand InChI>
InChI=1S/C19H17N3O2S/c20-17(23)15-11-16(14-9-5-2-6-10-14)25-18(15)22-19(24)21-12-13-7-3-1-4-8-13/h1-11H,12H2,(H2,20,23)(H2,21,22,24)

> <Ligand InChI Key>
HIGYIYKULRKWNM-UHFFFAOYSA-N

> <BindingDB MonomerID>
50066088

> <BindingDB Ligand Name>
CHEMBL3402935

> <Target Name Assigned by Curator or DataSource>
DNA gyrase subunit B

> <Target Source Organism According to Curator or DataSource>


> <Ki (nM)>


> <IC50 (nM)>
 10750

> <Kd (nM)>


> <EC50 (nM)>


> <kon (M-1-s-1)>


> <koff (s-1)>


> <pH>


> <Temp C>
25.00

> <Curation/DataSource>
ChEMBL

> <Article DOI>
10.1016/j.bmc.2015.02.032

> <PMID>
25766629

> <PubChem AID>


> <Patent Number>


> <Authors>
Saxena, S; Samala, G; Renuka, J; Sridevi, JP; Yogeeswari, P; Sriram, D

> <Institution>
Birla Institute of Technology&amp; Science-Pilani

> <Link to Ligand in BindingDB>
http://www.bindingdb.org/bind/chemsearch/marvin/MolStructure.jsp?monomerid=50066088

> <Link to Ligand-Target Pair in BindingDB>
http://www.bindingdb.org/jsp/dbsearch/PrimarySearch_ki.jsp?energyterm=kJ/mole&tag=pol&polymerid=50006452&target=DNA+gyrase+subunit+B&column=ki&startPg=0&Increment=50&submit=Search

> <Link to Ligand-Target Pair in BindingDB>
http://www.bindingdb.org/jsp/dbsearch/PrimarySearch_ki.jsp?energyterm=kJ/mole&tag=r21&monomerid=50066088&enzyme=DNA+gyrase+subunit+B&column=ki&startPg=0&Increment=50&submit=Search

> <Ligand HET ID in PDB>


> <PDB ID(s) for Ligand-Target Complex>


> <PubChem CID>
118729461

> <PubChem SID>
313071613

> <ChEBI ID of Ligand>


> <ChEMBL ID of Ligand>


> <DrugBank ID of Ligand>


> <IUPHAR_GRAC ID of Ligand>


> <KEGG ID of Ligand>


> <ZINC ID of Ligand>


> <Number of Protein Chains in Target (>1 implies a multichain complex)>
1

> <BindingDB Target Chain Sequence>
MAAQKNNAPKEYGADSITILEGLEAVRKRPGMYIGSTGERGLHHLIWEVVDNAVDEAMAGFATRVDVKIHADGSVEVRDDGRGIPVEMHATGMPTIDVVMTQLHAGGKFDGETYAVSGGLHGVGVSVVNALSTRLEATVLRDGYEWFQYYDRSVPGKLKQGGETKETGTTIRFWADPEIFETTDYNFETVARRLQEMAFLNKGLTIELTDERVTAEEVVDDVVKDTAEAPKTADEKAAEATGPSKVKHRVFHYPGGLVDYVKHINRTKTPIQQSIIDFDGKGPGHEVEIAMQWNAGYSESVHTFANTINTHEGGTHEEGFRAALTSVVNRYAKDKKLLKDKDPNLTGDDIREGLAAVISVKVAEPQFEGQTKTKLGNTEVKSFVQKICNEQLQHWFEANPAEAKTVVNKAVSSAQARIAARKARELVRRKSATDIGGLPGKLADCRSTDPSKSELYVVEGDSAGGSAKSGRDSMFQAILPLRGKIINVEKARIDRVLKNTEVQSIITALGTGIHDEFDISKLRYHKIVLMADADVDGQHISTLLLTLLFRFMKPLVENGHIFLAQPPLYKLKWQRSEPEFAYSDRERDGLLEAGRAAGKKINVDDGIQRYKGLGEMDAKELWETTMDPSVRVLRQVTLDDAAAADELFSILMGEDVEARRSFITRNAKDVRFLDV

> <PDB ID(s) of Target Chain>
4BAE

> <UniProt (SwissProt) Recommended Name of Target Chain>
DNA gyrase subunit B

> <UniProt (SwissProt) Entry Name of Target Chain>
GYRB_MYCSM

> <UniProt (SwissProt) Primary ID of Target Chain>
P0C559

> <UniProt (SwissProt) Secondary ID(s) of Target Chain>
P48355,Q59555

> <UniProt (SwissProt) Alternative ID(s) of Target Chain>


> <UniProt (TrEMBL) Submitted Name of Target Chain>


> <UniProt (TrEMBL) Entry Name of Target Chain>


> <UniProt (TrEMBL) Primary ID of Target Chain>


> <UniProt (TrEMBL) Secondary ID(s) of Target Chain>


> <UniProt (TrEMBL) Alternative ID(s) of Target Chain>


$$$$

  SciTegic04201612532D

 33 36  0  0  0  0            999 V2000
   -1.2964    1.4973    0.0000 N   0  0
   -2.6111    0.7486    0.0000 C   0  0
   -2.6111   -0.7486    0.0000 C   0  0
   -1.2964   -1.4973    0.0000 C   0  0
    0.0000   -0.7486    0.0000 C   0  0
    1.2964   -1.4973    0.0000 C   0  0
    2.5929   -0.7486    0.0000 C   0  0
    2.5929    0.7486    0.0000 C   0  0
    1.2964    1.4973    0.0000 C   0  0
    0.0000    0.7486    0.0000 C   0  0
   -3.9122   -1.4966    0.0000 C   0  0
   -3.9138   -2.4966    0.0000 O   0  0
   -5.2109   -0.7445    0.0000 N   0  0
   -1.2907   -2.9981    0.0000 N   0  0
   -2.5870   -3.7544    0.0000 C   0  0
   -2.5835   -5.2544    0.0000 C   0  0
   -3.8807   -6.0076    0.0000 C   0  0
   -5.1815   -5.2608    0.0000 C   0  0
   -5.1852   -3.7608    0.0000 C   0  0
   -3.8880   -3.0076    0.0000 C   0  0
   -6.4810   -6.0117    0.0000 N   0  0
   -7.7815   -5.2626    0.0000 C   0  0
   -9.0810   -6.0135    0.0000 C   0  0
  -10.3815   -5.2644    0.0000 C   0  0
  -14.2755   -7.5217    0.0000 N   0  0
  -14.2791   -6.0217    0.0000 C   0  0
  -12.9819   -5.2686    0.0000 C   0  0
  -11.6810   -6.0154    0.0000 N   0  0
  -11.6774   -7.5154    0.0000 C   0  0
  -12.9746   -8.2686    0.0000 C   0  0
   -6.2513   -1.3425    0.0000 N   0  0
  -15.5719   -8.2779    0.0000 C   0  0
  -15.5672   -9.4779    0.0000 C   0  0
  1  2  2  0
  2  3  1  0
  3  4  2  0
  4  5  1  0
  5  6  2  0
  6  7  1  0
  7  8  2  0
  8  9  1  0
  9 10  2  0
  1 10  1  0
  5 10  1  0
 11 12  2  0
 11 13  1  0
  3 11  1  0
 15 16  1  0
 16 17  2  0
 17 18  1  0
 18 19  2  0
 19 20  1  0
 15 20  2  0
 22 23  1  0
 23 24  1  0
 21 22  1  0
 25 26  1  0
 26 27  1  0
 27 28  1  0
 28 29  1  0
 29 30  1  0
 25 30  1  0
 24 28  1  0
 18 21  1  0
 14 15  1  0
  4 14  1  0
 13 31  1  0
 25 32  1  0
 32 33  1  0
M  END
> <From> 
www.bindingDB.org

> <BindingDB Reactant_set_id>
50426766

> <Ligand InChI>
InChI=1S/C25H33N7O/c1-2-31-14-16-32(17-15-31)13-5-12-27-19-8-10-20(11-9-19)29-24-21-6-3-4-7-23(21)28-18-22(24)25(33)30-26/h3-4,6-11,18,27H,2,5,12-17,26H2,1H3,(H,28,29)(H,30,33)

> <Ligand InChI Key>
FIYJPAWTWGYSQK-UHFFFAOYSA-N

> <BindingDB MonomerID>
50126478

> <BindingDB Ligand Name>
CHEMBL3628451

> <Target Name Assigned by Curator or DataSource>
DNA gyrase subunit B

> <Target Source Organism According to Curator or DataSource>


> <Ki (nM)>


> <IC50 (nM)>
 10830

> <Kd (nM)>


> <EC50 (nM)>


> <kon (M-1-s-1)>


> <koff (s-1)>


> <pH>


> <Temp C>


> <Curation/DataSource>
ChEMBL

> <Article DOI>
10.1016/j.ejmech.2015.06.032

> <PMID>
26318054

> <PubChem AID>


> <Patent Number>


> <Authors>
Medapi, B; Suryadevara, P; Renuka, J; Sridevi, JP; Yogeeswari, P; Sriram, D

> <Institution>
Birla Institute of Technology&amp;Science

> <Link to Ligand in BindingDB>
http://www.bindingdb.org/bind/chemsearch/marvin/MolStructure.jsp?monomerid=50126478

> <Link to Ligand-Target Pair in BindingDB>
http://www.bindingdb.org/jsp/dbsearch/PrimarySearch_ki.jsp?energyterm=kJ/mole&tag=pol&polymerid=50006452&target=DNA+gyrase+subunit+B&column=ki&startPg=0&Increment=50&submit=Search

> <Link to Ligand-Target Pair in BindingDB>
http://www.bindingdb.org/jsp/dbsearch/PrimarySearch_ki.jsp?energyterm=kJ/mole&tag=r21&monomerid=50126478&enzyme=DNA+gyrase+subunit+B&column=ki&startPg=0&Increment=50&submit=Search

> <Ligand HET ID in PDB>


> <PDB ID(s) for Ligand-Target Complex>


> <PubChem CID>
122193465

> <PubChem SID>
104018554

> <ChEBI ID of Ligand>


> <ChEMBL ID of Ligand>
CHEMBL34288

> <DrugBank ID of Ligand>


> <IUPHAR_GRAC ID of Ligand>


> <KEGG ID of Ligand>


> <ZINC ID of Ligand>
ZINC29219807

> <Number of Protein Chains in Target (>1 implies a multichain complex)>
1

> <BindingDB Target Chain Sequence>
MAAQKNNAPKEYGADSITILEGLEAVRKRPGMYIGSTGERGLHHLIWEVVDNAVDEAMAGFATRVDVKIHADGSVEVRDDGRGIPVEMHATGMPTIDVVMTQLHAGGKFDGETYAVSGGLHGVGVSVVNALSTRLEATVLRDGYEWFQYYDRSVPGKLKQGGETKETGTTIRFWADPEIFETTDYNFETVARRLQEMAFLNKGLTIELTDERVTAEEVVDDVVKDTAEAPKTADEKAAEATGPSKVKHRVFHYPGGLVDYVKHINRTKTPIQQSIIDFDGKGPGHEVEIAMQWNAGYSESVHTFANTINTHEGGTHEEGFRAALTSVVNRYAKDKKLLKDKDPNLTGDDIREGLAAVISVKVAEPQFEGQTKTKLGNTEVKSFVQKICNEQLQHWFEANPAEAKTVVNKAVSSAQARIAARKARELVRRKSATDIGGLPGKLADCRSTDPSKSELYVVEGDSAGGSAKSGRDSMFQAILPLRGKIINVEKARIDRVLKNTEVQSIITALGTGIHDEFDISKLRYHKIVLMADADVDGQHISTLLLTLLFRFMKPLVENGHIFLAQPPLYKLKWQRSEPEFAYSDRERDGLLEAGRAAGKKINVDDGIQRYKGLGEMDAKELWETTMDPSVRVLRQVTLDDAAAADELFSILMGEDVEARRSFITRNAKDVRFLDV

> <PDB ID(s) of Target Chain>
4BAE

> <UniProt (SwissProt) Recommended Name of Target Chain>
DNA gyrase subunit B

> <UniProt (SwissProt) Entry Name of Target Chain>
GYRB_MYCSM

> <UniProt (SwissProt) Primary ID of Target Chain>
P0C559

> <UniProt (SwissProt) Secondary ID(s) of Target Chain>
P48355,Q59555

> <UniProt (SwissProt) Alternative ID(s) of Target Chain>


> <UniProt (TrEMBL) Submitted Name of Target Chain>


> <UniProt (TrEMBL) Entry Name of Target Chain>


> <UniProt (TrEMBL) Primary ID of Target Chain>


> <UniProt (TrEMBL) Secondary ID(s) of Target Chain>


> <UniProt (TrEMBL) Alternative ID(s) of Target Chain>


$$$$

  Mrv0541 04171609262D          

 25 27  0  0  0  0            999 V2000
    0.7145   -0.4125    0.0000 C   0  0  0  0  0  0  0  0  0  0  0  0
    0.7145    0.4125    0.0000 C   0  0  0  0  0  0  0  0  0  0  0  0
    0.0000    0.8250    0.0000 C   0  0  0  0  0  0  0  0  0  0  0  0
   -0.7145    0.4125    0.0000 C   0  0  0  0  0  0  0  0  0  0  0  0
   -0.7145   -0.4125    0.0000 C   0  0  0  0  0  0  0  0  0  0  0  0
    0.0000   -0.8250    0.0000 C   0  0  0  0  0  0  0  0  0  0  0  0
   -1.4293   -0.8252    0.0000 C   0  0  0  0  0  0  0  0  0  0  0  0
   -2.1731   -0.4848    0.0000 S   0  0  0  0  0  0  0  0  0  0  0  0
   -2.7242   -1.0988    0.0000 C   0  0  0  0  0  0  0  0  0  0  0  0
   -2.3106   -1.8127    0.0000 C   0  0  0  0  0  0  0  0  0  0  0  0
   -1.5039   -1.6398    0.0000 C   0  0  0  0  0  0  0  0  0  0  0  0
   -2.6429   -2.5667    0.0000 C   0  0  0  0  0  0  0  0  0  0  0  0
   -2.2534   -3.0994    0.0000 O   0  0  0  0  0  0  0  0  0  0  0  0
   -3.2991   -2.6378    0.0000 N   0  0  0  0  0  0  0  0  0  0  0  0
   -3.5437   -1.0123    0.0000 N   0  0  0  0  0  0  0  0  0  0  0  0
   -3.8796   -0.2582    0.0000 C   0  0  0  0  0  0  0  0  0  0  0  0
   -4.7005   -0.1715    0.0000 N   0  0  0  0  0  0  0  0  0  0  0  0
   -3.4915    0.2757    0.0000 S   0  0  0  0  0  0  0  0  0  0  0  0
   -5.0363    0.5825    0.0000 C   0  0  0  0  0  0  0  0  0  0  0  0
   -5.8566    0.6703    0.0000 C   0  0  0  0  0  0  0  0  0  0  0  0
   -6.1908    1.4246    0.0000 C   0  0  0  0  0  0  0  0  0  0  0  0
   -5.7046    2.0912    0.0000 C   0  0  0  0  0  0  0  0  0  0  0  0
   -4.8843    2.0034    0.0000 C   0  0  0  0  0  0  0  0  0  0  0  0
   -4.5501    1.2491    0.0000 C   0  0  0  0  0  0  0  0  0  0  0  0
   -5.9719    2.6946    0.0000 Br  0  0  0  0  0  0  0  0  0  0  0  0
  1  2  4  0  0  0  0
  2  3  4  0  0  0  0
  3  4  4  0  0  0  0
  4  5  4  0  0  0  0
  5  6  4  0  0  0  0
  6  1  4  0  0  0  0
  7  8  4  0  0  0  0
  8  9  4  0  0  0  0
  9 10  4  0  0  0  0
 10 11  4  0  0  0  0
 11  7  4  0  0  0  0
  5  7  1  0  0  0  0
 10 12  1  0  0  0  0
 12 13  2  0  0  0  0
 12 14  1  0  0  0  0
  9 15  1  0  0  0  0
 15 16  1  0  0  0  0
 16 17  1  0  0  0  0
 16 18  2  0  0  0  0
 17 19  1  0  0  0  0
 19 20  4  0  0  0  0
 20 21  4  0  0  0  0
 21 22  4  0  0  0  0
 22 23  4  0  0  0  0
 23 24  4  0  0  0  0
 24 19  4  0  0  0  0
 22 25  1  0  0  0  0
M  END
> <From> 
www.bindingDB.org

> <BindingDB Reactant_set_id>
50302324

> <Ligand InChI>
InChI=1S/C18H14BrN3OS2/c19-12-6-8-13(9-7-12)21-18(24)22-17-14(16(20)23)10-15(25-17)11-4-2-1-3-5-11/h1-10H,(H2,20,23)(H2,21,22,24)

> <Ligand InChI Key>
GCKSQUBUSOLFCI-UHFFFAOYSA-N

> <BindingDB MonomerID>
50066090

> <BindingDB Ligand Name>
CHEMBL3402937

> <Target Name Assigned by Curator or DataSource>
DNA gyrase subunit B

> <Target Source Organism According to Curator or DataSource>


> <Ki (nM)>


> <IC50 (nM)>
 10870

> <Kd (nM)>


> <EC50 (nM)>


> <kon (M-1-s-1)>


> <koff (s-1)>


> <pH>


> <Temp C>
25.00

> <Curation/DataSource>
ChEMBL

> <Article DOI>
10.1016/j.bmc.2015.02.032

> <PMID>
25766629

> <PubChem AID>


> <Patent Number>


> <Authors>
Saxena, S; Samala, G; Renuka, J; Sridevi, JP; Yogeeswari, P; Sriram, D

> <Institution>
Birla Institute of Technology&amp; Science-Pilani

> <Link to Ligand in BindingDB>
http://www.bindingdb.org/bind/chemsearch/marvin/MolStructure.jsp?monomerid=50066090

> <Link to Ligand-Target Pair in BindingDB>
http://www.bindingdb.org/jsp/dbsearch/PrimarySearch_ki.jsp?energyterm=kJ/mole&tag=pol&polymerid=50006452&target=DNA+gyrase+subunit+B&column=ki&startPg=0&Increment=50&submit=Search

> <Link to Ligand-Target Pair in BindingDB>
http://www.bindingdb.org/jsp/dbsearch/PrimarySearch_ki.jsp?energyterm=kJ/mole&tag=r21&monomerid=50066090&enzyme=DNA+gyrase+subunit+B&column=ki&startPg=0&Increment=50&submit=Search

> <Ligand HET ID in PDB>


> <PDB ID(s) for Ligand-Target Complex>


> <PubChem CID>
118729462

> <PubChem SID>
313071615

> <ChEBI ID of Ligand>


> <ChEMBL ID of Ligand>


> <DrugBank ID of Ligand>


> <IUPHAR_GRAC ID of Ligand>


> <KEGG ID of Ligand>


> <ZINC ID of Ligand>


> <Number of Protein Chains in Target (>1 implies a multichain complex)>
1

> <BindingDB Target Chain Sequence>
MAAQKNNAPKEYGADSITILEGLEAVRKRPGMYIGSTGERGLHHLIWEVVDNAVDEAMAGFATRVDVKIHADGSVEVRDDGRGIPVEMHATGMPTIDVVMTQLHAGGKFDGETYAVSGGLHGVGVSVVNALSTRLEATVLRDGYEWFQYYDRSVPGKLKQGGETKETGTTIRFWADPEIFETTDYNFETVARRLQEMAFLNKGLTIELTDERVTAEEVVDDVVKDTAEAPKTADEKAAEATGPSKVKHRVFHYPGGLVDYVKHINRTKTPIQQSIIDFDGKGPGHEVEIAMQWNAGYSESVHTFANTINTHEGGTHEEGFRAALTSVVNRYAKDKKLLKDKDPNLTGDDIREGLAAVISVKVAEPQFEGQTKTKLGNTEVKSFVQKICNEQLQHWFEANPAEAKTVVNKAVSSAQARIAARKARELVRRKSATDIGGLPGKLADCRSTDPSKSELYVVEGDSAGGSAKSGRDSMFQAILPLRGKIINVEKARIDRVLKNTEVQSIITALGTGIHDEFDISKLRYHKIVLMADADVDGQHISTLLLTLLFRFMKPLVENGHIFLAQPPLYKLKWQRSEPEFAYSDRERDGLLEAGRAAGKKINVDDGIQRYKGLGEMDAKELWETTMDPSVRVLRQVTLDDAAAADELFSILMGEDVEARRSFITRNAKDVRFLDV

> <PDB ID(s) of Target Chain>
4BAE

> <UniProt (SwissProt) Recommended Name of Target Chain>
DNA gyrase subunit B

> <UniProt (SwissProt) Entry Name of Target Chain>
GYRB_MYCSM

> <UniProt (SwissProt) Primary ID of Target Chain>
P0C559

> <UniProt (SwissProt) Secondary ID(s) of Target Chain>
P48355,Q59555

> <UniProt (SwissProt) Alternative ID(s) of Target Chain>


> <UniProt (TrEMBL) Submitted Name of Target Chain>


> <UniProt (TrEMBL) Entry Name of Target Chain>


> <UniProt (TrEMBL) Primary ID of Target Chain>


> <UniProt (TrEMBL) Secondary ID(s) of Target Chain>


> <UniProt (TrEMBL) Alternative ID(s) of Target Chain>


$$$$

  SciTegic12211712072D

 25 28  0  0  0  0            999 V2000
   12.3051   -8.3413    0.0000 C   0  0
   11.5910   -7.9447    0.0000 O   0  0
   13.0048   -7.9209    0.0000 C   0  0
   13.7189   -8.3175    0.0000 C   0  0
   14.4228   -7.9012    0.0000 C   0  0
   14.4084   -7.0842    0.0000 C   0  0
   13.6943   -6.6834    0.0000 C   0  0
   12.9946   -7.1038    0.0000 N   0  0
   12.3154   -9.1584    0.0000 N   0  0
   11.6156   -9.5788    0.0000 C   0  0
   11.6259  -10.3958    0.0000 C   0  0
   12.3400  -10.7925    0.0000 N   0  0
   13.0438  -10.3720    0.0000 C   0  0
   13.0294   -9.5550    0.0000 C   0  0
   12.3790  -13.2436    0.0000 N   0  0
   13.0787  -12.8232    0.0000 C   0  0
   13.0684  -12.0062    0.0000 C   0  0
   12.3543  -11.6095    0.0000 C   0  0
   11.6505  -12.0299    0.0000 C   0  0
   10.9364  -11.6292    0.0000 C   0  0
   10.2367  -12.0496    0.0000 C   0  0
   10.2469  -12.8666    0.0000 C   0  0
   10.9610  -13.2633    0.0000 C   0  0
   11.6649  -12.8470    0.0000 C   0  0
    9.5472  -13.2871    0.0000 Cl  0  0
  1  2  2  0
  3  4  1  0
  4  5  2  0
  5  6  1  0
  6  7  2  0
  7  8  1  0
  3  8  2  0
  1  3  1  0
  9 10  1  0
 10 11  1  0
 11 12  1  0
 12 13  1  0
 13 14  1  0
  9 14  1  0
 15 16  2  0
 16 17  1  0
 17 18  2  0
 18 19  1  0
 19 20  2  0
 20 21  1  0
 21 22  2  0
 22 23  1  0
 23 24  2  0
 15 24  1  0
 19 24  1  0
 22 25  1  0
 12 18  1  0
  1  9  1  0
M  END
> <From> 
www.bindingDB.org

> <BindingDB Reactant_set_id>
50528049

> <Ligand InChI>
InChI=1S/C19H17ClN4O/c20-14-4-5-15-17(13-14)22-8-6-18(15)23-9-11-24(12-10-23)19(25)16-3-1-2-7-21-16/h1-8,13H,9-12H2

> <Ligand InChI Key>
IAPZLHDXFMEDRZ-UHFFFAOYSA-N

> <BindingDB MonomerID>
50202004

> <BindingDB Ligand Name>
CHEMBL3921436

> <Target Name Assigned by Curator or DataSource>
DNA gyrase subunit B

> <Target Source Organism According to Curator or DataSource>


> <Ki (nM)>


> <IC50 (nM)>
 11000

> <Kd (nM)>


> <EC50 (nM)>


> <kon (M-1-s-1)>


> <koff (s-1)>


> <pH>


> <Temp C>


> <Curation/DataSource>
ChEMBL

> <Article DOI>
10.1016/j.ejmech.2016.06.042

> <PMID>
27371925

> <PubChem AID>


> <Patent Number>


> <Authors>
Jeankumar, VU; Reshma, RS; Vats, R; Janupally, R; Saxena, S; Yogeeswari, P; Sriram, D

> <Institution>
Birla Institute of Technology&amp; Science-Pilani

> <Link to Ligand in BindingDB>
http://www.bindingdb.org/bind/chemsearch/marvin/MolStructure.jsp?monomerid=50202004

> <Link to Ligand-Target Pair in BindingDB>
http://www.bindingdb.org/jsp/dbsearch/PrimarySearch_ki.jsp?energyterm=kJ/mole&tag=pol&polymerid=50006452&target=DNA+gyrase+subunit+B&column=ki&startPg=0&Increment=50&submit=Search

> <Link to Ligand-Target Pair in BindingDB>
http://www.bindingdb.org/jsp/dbsearch/PrimarySearch_ki.jsp?energyterm=kJ/mole&tag=r21&monomerid=50202004&enzyme=DNA+gyrase+subunit+B&column=ki&startPg=0&Increment=50&submit=Search

> <Ligand HET ID in PDB>


> <PDB ID(s) for Ligand-Target Complex>


> <PubChem CID>
31399612

> <PubChem SID>
375979563

> <ChEBI ID of Ligand>


> <ChEMBL ID of Ligand>


> <DrugBank ID of Ligand>


> <IUPHAR_GRAC ID of Ligand>


> <KEGG ID of Ligand>


> <ZINC ID of Ligand>


> <Number of Protein Chains in Target (>1 implies a multichain complex)>
1

> <BindingDB Target Chain Sequence>
MAAQKNNAPKEYGADSITILEGLEAVRKRPGMYIGSTGERGLHHLIWEVVDNAVDEAMAGFATRVDVKIHADGSVEVRDDGRGIPVEMHATGMPTIDVVMTQLHAGGKFDGETYAVSGGLHGVGVSVVNALSTRLEATVLRDGYEWFQYYDRSVPGKLKQGGETKETGTTIRFWADPEIFETTDYNFETVARRLQEMAFLNKGLTIELTDERVTAEEVVDDVVKDTAEAPKTADEKAAEATGPSKVKHRVFHYPGGLVDYVKHINRTKTPIQQSIIDFDGKGPGHEVEIAMQWNAGYSESVHTFANTINTHEGGTHEEGFRAALTSVVNRYAKDKKLLKDKDPNLTGDDIREGLAAVISVKVAEPQFEGQTKTKLGNTEVKSFVQKICNEQLQHWFEANPAEAKTVVNKAVSSAQARIAARKARELVRRKSATDIGGLPGKLADCRSTDPSKSELYVVEGDSAGGSAKSGRDSMFQAILPLRGKIINVEKARIDRVLKNTEVQSIITALGTGIHDEFDISKLRYHKIVLMADADVDGQHISTLLLTLLFRFMKPLVENGHIFLAQPPLYKLKWQRSEPEFAYSDRERDGLLEAGRAAGKKINVDDGIQRYKGLGEMDAKELWETTMDPSVRVLRQVTLDDAAAADELFSILMGEDVEARRSFITRNAKDVRFLDV

> <PDB ID(s) of Target Chain>
4BAE

> <UniProt (SwissProt) Recommended Name of Target Chain>
DNA gyrase subunit B

> <UniProt (SwissProt) Entry Name of Target Chain>
GYRB_MYCSM

> <UniProt (SwissProt) Primary ID of Target Chain>
P0C559

> <UniProt (SwissProt) Secondary ID(s) of Target Chain>
P48355,Q59555

> <UniProt (SwissProt) Alternative ID(s) of Target Chain>


> <UniProt (TrEMBL) Submitted Name of Target Chain>


> <UniProt (TrEMBL) Entry Name of Target Chain>


> <UniProt (TrEMBL) Primary ID of Target Chain>


> <UniProt (TrEMBL) Secondary ID(s) of Target Chain>


> <UniProt (TrEMBL) Alternative ID(s) of Target Chain>


$$$$

  SciTegic12231718432D

 28 31  0  0  0  0            999 V2000
   21.4177   -4.9933    0.0000 N   0  0
   20.7043   -5.3912    0.0000 C   0  0
   20.6914   -6.2083    0.0000 C   0  0
   21.3960   -6.6275    0.0000 N   0  0
   22.1094   -6.2296    0.0000 C   0  0
   22.1182   -5.4125    0.0000 C   0  0
   21.4265   -4.1763    0.0000 C   0  0
   22.1399   -3.7784    0.0000 N   0  0
   20.7261   -3.7571    0.0000 S   0  0
   22.1529   -2.9613    0.0000 C   0  0
   22.8663   -2.5593    0.0000 C   0  0
   22.8792   -1.7422    0.0000 C   0  0
   22.1746   -1.3272    0.0000 C   0  0
   21.4612   -1.7250    0.0000 C   0  0
   21.4524   -2.5421    0.0000 C   0  0
   21.3613   -9.0787    0.0000 N   0  0
   22.0747   -8.6808    0.0000 C   0  0
   22.0835   -7.8637    0.0000 C   0  0
   21.3830   -7.4446    0.0000 C   0  0
   20.6696   -7.8424    0.0000 C   0  0
   19.9692   -7.4232    0.0000 C   0  0
   19.2558   -7.8211    0.0000 C   0  0
   19.2428   -8.6423    0.0000 C   0  0
   19.9433   -9.0574    0.0000 C   0  0
   20.6608   -8.6595    0.0000 C   0  0
   18.5295   -9.0402    0.0000 Cl  0  0
   22.1857   -0.5086    0.0000 O   0  0
   21.4828   -0.0917    0.0000 C   0  0
  1  2  1  0
  2  3  1  0
  3  4  1  0
  4  5  1  0
  5  6  1  0
  1  6  1  0
  7  8  1  0
  7  9  2  0
  1  7  1  0
 10 11  1  0
 11 12  2  0
 12 13  1  0
 13 14  2  0
 14 15  1  0
 10 15  2  0
  8 10  1  0
 16 17  2  0
 17 18  1  0
 18 19  2  0
 19 20  1  0
 20 21  2  0
 21 22  1  0
 22 23  2  0
 23 24  1  0
 24 25  2  0
 16 25  1  0
 20 25  1  0
 23 26  1  0
  4 19  1  0
 27 28  1  0
 13 27  1  0
M  END
> <From> 
www.bindingDB.org

> <BindingDB Reactant_set_id>
50528051

> <Ligand InChI>
InChI=1S/C21H21ClN4OS/c1-27-17-5-3-16(4-6-17)24-21(28)26-12-10-25(11-13-26)20-8-9-23-19-14-15(22)2-7-18(19)20/h2-9,14H,10-13H2,1H3,(H,24,28)

> <Ligand InChI Key>
COJYMIXBYDEOLR-UHFFFAOYSA-N

> <BindingDB MonomerID>
50202006

> <BindingDB Ligand Name>
CHEMBL3963549

> <Target Name Assigned by Curator or DataSource>
DNA gyrase subunit B

> <Target Source Organism According to Curator or DataSource>


> <Ki (nM)>


> <IC50 (nM)>
 11000

> <Kd (nM)>


> <EC50 (nM)>


> <kon (M-1-s-1)>


> <koff (s-1)>


> <pH>


> <Temp C>


> <Curation/DataSource>
ChEMBL

> <Article DOI>
10.1016/j.ejmech.2016.06.042

> <PMID>
27371925

> <PubChem AID>


> <Patent Number>


> <Authors>
Jeankumar, VU; Reshma, RS; Vats, R; Janupally, R; Saxena, S; Yogeeswari, P; Sriram, D

> <Institution>
Birla Institute of Technology&amp; Science-Pilani

> <Link to Ligand in BindingDB>
http://www.bindingdb.org/bind/chemsearch/marvin/MolStructure.jsp?monomerid=50202006

> <Link to Ligand-Target Pair in BindingDB>
http://www.bindingdb.org/jsp/dbsearch/PrimarySearch_ki.jsp?energyterm=kJ/mole&tag=pol&polymerid=50006452&target=DNA+gyrase+subunit+B&column=ki&startPg=0&Increment=50&submit=Search

> <Link to Ligand-Target Pair in BindingDB>
http://www.bindingdb.org/jsp/dbsearch/PrimarySearch_ki.jsp?energyterm=kJ/mole&tag=r21&monomerid=50202006&enzyme=DNA+gyrase+subunit+B&column=ki&startPg=0&Increment=50&submit=Search

> <Ligand HET ID in PDB>


> <PDB ID(s) for Ligand-Target Complex>


> <PubChem CID>
134151265

> <PubChem SID>
375979565

> <ChEBI ID of Ligand>


> <ChEMBL ID of Ligand>


> <DrugBank ID of Ligand>


> <IUPHAR_GRAC ID of Ligand>


> <KEGG ID of Ligand>


> <ZINC ID of Ligand>


> <Number of Protein Chains in Target (>1 implies a multichain complex)>
1

> <BindingDB Target Chain Sequence>
MAAQKNNAPKEYGADSITILEGLEAVRKRPGMYIGSTGERGLHHLIWEVVDNAVDEAMAGFATRVDVKIHADGSVEVRDDGRGIPVEMHATGMPTIDVVMTQLHAGGKFDGETYAVSGGLHGVGVSVVNALSTRLEATVLRDGYEWFQYYDRSVPGKLKQGGETKETGTTIRFWADPEIFETTDYNFETVARRLQEMAFLNKGLTIELTDERVTAEEVVDDVVKDTAEAPKTADEKAAEATGPSKVKHRVFHYPGGLVDYVKHINRTKTPIQQSIIDFDGKGPGHEVEIAMQWNAGYSESVHTFANTINTHEGGTHEEGFRAALTSVVNRYAKDKKLLKDKDPNLTGDDIREGLAAVISVKVAEPQFEGQTKTKLGNTEVKSFVQKICNEQLQHWFEANPAEAKTVVNKAVSSAQARIAARKARELVRRKSATDIGGLPGKLADCRSTDPSKSELYVVEGDSAGGSAKSGRDSMFQAILPLRGKIINVEKARIDRVLKNTEVQSIITALGTGIHDEFDISKLRYHKIVLMADADVDGQHISTLLLTLLFRFMKPLVENGHIFLAQPPLYKLKWQRSEPEFAYSDRERDGLLEAGRAAGKKINVDDGIQRYKGLGEMDAKELWETTMDPSVRVLRQVTLDDAAAADELFSILMGEDVEARRSFITRNAKDVRFLDV

> <PDB ID(s) of Target Chain>
4BAE

> <UniProt (SwissProt) Recommended Name of Target Chain>
DNA gyrase subunit B

> <UniProt (SwissProt) Entry Name of Target Chain>
GYRB_MYCSM

> <UniProt (SwissProt) Primary ID of Target Chain>
P0C559

> <UniProt (SwissProt) Secondary ID(s) of Target Chain>
P48355,Q59555

> <UniProt (SwissProt) Alternative ID(s) of Target Chain>


> <UniProt (TrEMBL) Submitted Name of Target Chain>


> <UniProt (TrEMBL) Entry Name of Target Chain>


> <UniProt (TrEMBL) Primary ID of Target Chain>


> <UniProt (TrEMBL) Secondary ID(s) of Target Chain>


> <UniProt (TrEMBL) Alternative ID(s) of Target Chain>


$$$$

  Mrv0541 03201611132D          

 27 30  0  0  0  0            999 V2000
   27.0862  -16.0301    0.0000 N   0  0  0  0  0  0  0  0  0  0  0  0
   26.8287  -16.8157    0.0000 C   0  0  0  0  0  0  0  0  0  0  0  0
   26.0219  -16.9840    0.0000 C   0  0  0  0  0  0  0  0  0  0  0  0
   25.4683  -16.3711    0.0000 N   0  0  0  0  0  0  0  0  0  0  0  0
   25.7257  -15.5899    0.0000 C   0  0  0  0  0  0  0  0  0  0  0  0
   26.5324  -15.4174    0.0000 C   0  0  0  0  0  0  0  0  0  0  0  0
   27.8929  -15.8576    0.0000 C   0  0  0  0  0  0  0  0  0  0  0  0
   28.1502  -15.0722    0.0000 N   0  0  0  0  0  0  0  0  0  0  0  0
   28.4466  -16.4705    0.0000 S   0  0  0  0  0  0  0  0  0  0  0  0
   23.5046  -17.2139    0.0000 S   0  0  0  0  0  0  0  0  0  0  0  0
   24.3278  -17.2989    0.0000 N   0  0  0  0  0  0  0  0  0  0  0  0
   24.6615  -16.5438    0.0000 C   0  0  0  0  0  0  0  0  0  0  0  0
   24.0486  -15.9943    0.0000 C   0  0  0  0  0  0  0  0  0  0  0  0
   23.3321  -16.4072    0.0000 C   0  0  0  0  0  0  0  0  0  0  0  0
   22.6197  -15.9943    0.0000 C   0  0  0  0  0  0  0  0  0  0  0  0
   22.6197  -15.1685    0.0000 C   0  0  0  0  0  0  0  0  0  0  0  0
   23.3321  -14.7555    0.0000 C   0  0  0  0  0  0  0  0  0  0  0  0
   24.0486  -15.1685    0.0000 C   0  0  0  0  0  0  0  0  0  0  0  0
   28.9460  -14.8568    0.0000 C   0  0  0  0  0  0  0  0  0  0  0  0
   29.1614  -14.0611    0.0000 C   0  0  0  0  0  0  0  0  0  0  0  0
   29.9572  -13.8458    0.0000 C   0  0  0  0  0  0  0  0  0  0  0  0
   30.5415  -14.4301    0.0000 C   0  0  0  0  0  0  0  0  0  0  0  0
   30.3262  -15.2300    0.0000 C   0  0  0  0  0  0  0  0  0  0  0  0
   29.5305  -15.4412    0.0000 C   0  0  0  0  0  0  0  0  0  0  0  0
   31.3414  -14.2148    0.0000 C   0  0  0  0  0  0  0  0  0  0  0  0
   31.5527  -13.4191    0.0000 O   0  0  0  0  0  0  0  0  0  0  0  0
   31.9217  -14.7992    0.0000 C   0  0  0  0  0  0  0  0  0  0  0  0
  1  2  1  0  0  0  0
  2  3  1  0  0  0  0
  3  4  1  0  0  0  0
  4  5  1  0  0  0  0
  5  6  1  0  0  0  0
  1  6  1  0  0  0  0
  7  8  1  0  0  0  0
  7  9  2  0  0  0  0
  1  7  1  0  0  0  0
 10 11  4  0  0  0  0
 11 12  4  0  0  0  0
 12 13  4  0  0  0  0
 13 14  4  0  0  0  0
 10 14  4  0  0  0  0
 15 16  4  0  0  0  0
 16 17  4  0  0  0  0
 17 18  4  0  0  0  0
 13 18  4  0  0  0  0
 14 15  4  0  0  0  0
  4 12  1  0  0  0  0
 19 20  4  0  0  0  0
 20 21  4  0  0  0  0
 21 22  4  0  0  0  0
 22 23  4  0  0  0  0
 23 24  4  0  0  0  0
 19 24  4  0  0  0  0
 25 26  2  0  0  0  0
 25 27  1  0  0  0  0
 22 25  1  0  0  0  0
  8 19  1  0  0  0  0
M  END
> <From> 
www.bindingDB.org

> <BindingDB Reactant_set_id>
50254217

> <Ligand InChI>
InChI=1S/C20H20N4OS2/c1-14(25)15-6-8-16(9-7-15)21-20(26)24-12-10-23(11-13-24)19-17-4-2-3-5-18(17)27-22-19/h2-9H,10-13H2,1H3,(H,21,26)

> <Ligand InChI Key>
NPTIEDJVXAQEHX-UHFFFAOYSA-N

> <BindingDB MonomerID>
50037198

> <BindingDB Ligand Name>
CHEMBL3355805

> <Target Name Assigned by Curator or DataSource>
DNA gyrase subunit B

> <Target Source Organism According to Curator or DataSource>


> <Ki (nM)>


> <IC50 (nM)>
 11090

> <Kd (nM)>


> <EC50 (nM)>


> <kon (M-1-s-1)>


> <koff (s-1)>


> <pH>


> <Temp C>


> <Curation/DataSource>
ChEMBL

> <Article DOI>
10.1016/j.bmc.2014.10.016

> <PMID>
25456076

> <PubChem AID>


> <Patent Number>


> <Authors>
Reddy, KI; Srihari, K; Renuka, J; Sree, KS; Chuppala, A; Jeankumar, VU; Sridevi, JP; Babu, KS; Yogeeswari, P; Sriram, D

> <Institution>
TBA

> <Link to Ligand in BindingDB>
http://www.bindingdb.org/bind/chemsearch/marvin/MolStructure.jsp?monomerid=50037198

> <Link to Ligand-Target Pair in BindingDB>
http://www.bindingdb.org/jsp/dbsearch/PrimarySearch_ki.jsp?energyterm=kJ/mole&tag=pol&polymerid=50006452&target=DNA+gyrase+subunit+B&column=ki&startPg=0&Increment=50&submit=Search

> <Link to Ligand-Target Pair in BindingDB>
http://www.bindingdb.org/jsp/dbsearch/PrimarySearch_ki.jsp?energyterm=kJ/mole&tag=r21&monomerid=50037198&enzyme=DNA+gyrase+subunit+B&column=ki&startPg=0&Increment=50&submit=Search

> <Ligand HET ID in PDB>


> <PDB ID(s) for Ligand-Target Complex>


> <PubChem CID>
17322190

> <PubChem SID>
313067075

> <ChEBI ID of Ligand>


> <ChEMBL ID of Ligand>


> <DrugBank ID of Ligand>


> <IUPHAR_GRAC ID of Ligand>


> <KEGG ID of Ligand>


> <ZINC ID of Ligand>


> <Number of Protein Chains in Target (>1 implies a multichain complex)>
1

> <BindingDB Target Chain Sequence>
MAAQKNNAPKEYGADSITILEGLEAVRKRPGMYIGSTGERGLHHLIWEVVDNAVDEAMAGFATRVDVKIHADGSVEVRDDGRGIPVEMHATGMPTIDVVMTQLHAGGKFDGETYAVSGGLHGVGVSVVNALSTRLEATVLRDGYEWFQYYDRSVPGKLKQGGETKETGTTIRFWADPEIFETTDYNFETVARRLQEMAFLNKGLTIELTDERVTAEEVVDDVVKDTAEAPKTADEKAAEATGPSKVKHRVFHYPGGLVDYVKHINRTKTPIQQSIIDFDGKGPGHEVEIAMQWNAGYSESVHTFANTINTHEGGTHEEGFRAALTSVVNRYAKDKKLLKDKDPNLTGDDIREGLAAVISVKVAEPQFEGQTKTKLGNTEVKSFVQKICNEQLQHWFEANPAEAKTVVNKAVSSAQARIAARKARELVRRKSATDIGGLPGKLADCRSTDPSKSELYVVEGDSAGGSAKSGRDSMFQAILPLRGKIINVEKARIDRVLKNTEVQSIITALGTGIHDEFDISKLRYHKIVLMADADVDGQHISTLLLTLLFRFMKPLVENGHIFLAQPPLYKLKWQRSEPEFAYSDRERDGLLEAGRAAGKKINVDDGIQRYKGLGEMDAKELWETTMDPSVRVLRQVTLDDAAAADELFSILMGEDVEARRSFITRNAKDVRFLDV

> <PDB ID(s) of Target Chain>
4BAE

> <UniProt (SwissProt) Recommended Name of Target Chain>
DNA gyrase subunit B

> <UniProt (SwissProt) Entry Name of Target Chain>
GYRB_MYCSM

> <UniProt (SwissProt) Primary ID of Target Chain>
P0C559

> <UniProt (SwissProt) Secondary ID(s) of Target Chain>
P48355,Q59555

> <UniProt (SwissProt) Alternative ID(s) of Target Chain>


> <UniProt (TrEMBL) Submitted Name of Target Chain>


> <UniProt (TrEMBL) Entry Name of Target Chain>


> <UniProt (TrEMBL) Primary ID of Target Chain>


> <UniProt (TrEMBL) Secondary ID(s) of Target Chain>


> <UniProt (TrEMBL) Alternative ID(s) of Target Chain>


$$$$

  Mrv0541 04171609262D          

 30 33  0  0  0  0            999 V2000
   -1.4361    0.4117    0.0000 C   0  0  0  0  0  0  0  0  0  0  0  0
   -1.4361   -0.4117    0.0000 C   0  0  0  0  0  0  0  0  0  0  0  0
   -0.7130   -0.8235    0.0000 C   0  0  0  0  0  0  0  0  0  0  0  0
   -0.7130    0.8235    0.0000 C   0  0  0  0  0  0  0  0  0  0  0  0
    0.0000    0.4117    0.0000 C   0  0  0  0  0  0  0  0  0  0  0  0
    0.0000   -0.4117    0.0000 C   0  0  0  0  0  0  0  0  0  0  0  0
    0.7130   -0.8235    0.0000 N   0  0  0  0  0  0  0  0  0  0  0  0
    1.4261   -0.4117    0.0000 C   0  0  0  0  0  0  0  0  0  0  0  0
    1.4261    0.4117    0.0000 C   0  0  0  0  0  0  0  0  0  0  0  0
    0.7130    0.8235    0.0000 C   0  0  0  0  0  0  0  0  0  0  0  0
    0.7130    1.6489    0.0000 N   0  0  0  0  0  0  0  0  0  0  0  0
   -0.0008    2.0627    0.0000 C   0  0  0  0  0  0  0  0  0  0  0  0
    0.0006    2.8877    0.0000 C   0  0  0  0  0  0  0  0  0  0  0  0
    0.7158    3.2990    0.0000 C   0  0  0  0  0  0  0  0  0  0  0  0
    1.4296    2.8853    0.0000 C   0  0  0  0  0  0  0  0  0  0  0  0
    1.4282    2.0603    0.0000 C   0  0  0  0  0  0  0  0  0  0  0  0
    0.7188    4.1245    0.0000 N   0  0  0  0  0  0  0  0  0  0  0  0
    1.4350    4.5350    0.0000 C   0  0  0  0  0  0  0  0  0  0  0  0
    2.0054    4.2031    0.0000 S   0  0  0  0  0  0  0  0  0  0  0  0
    1.4380    5.3605    0.0000 N   0  0  0  0  0  0  0  0  0  0  0  0
    2.1541    5.7710    0.0000 C   0  0  0  0  0  0  0  0  0  0  0  0
    2.1584    6.5960    0.0000 C   0  0  0  0  0  0  0  0  0  0  0  0
    2.8750    7.0049    0.0000 C   0  0  0  0  0  0  0  0  0  0  0  0
    3.5874    6.5887    0.0000 C   0  0  0  0  0  0  0  0  0  0  0  0
    3.5831    5.7637    0.0000 C   0  0  0  0  0  0  0  0  0  0  0  0
    2.8666    5.3548    0.0000 C   0  0  0  0  0  0  0  0  0  0  0  0
    1.9977   -0.7417    0.0000 C   0  0  0  0  0  0  0  0  0  0  0  0
    4.1606    6.9158    0.0000 C   0  0  0  0  0  0  0  0  0  0  0  0
   -2.1500    0.8261    0.0000 O   0  0  0  0  0  0  0  0  0  0  0  0
   -2.1490    1.4861    0.0000 C   0  0  0  0  0  0  0  0  0  0  0  0
  1  2  4  0  0  0  0
  2  3  4  0  0  0  0
  3  6  4  0  0  0  0
  5  4  4  0  0  0  0
  4  1  4  0  0  0  0
  5  6  4  0  0  0  0
  6  7  4  0  0  0  0
  7  8  4  0  0  0  0
  8  9  4  0  0  0  0
  9 10  4  0  0  0  0
 10  5  4  0  0  0  0
 11 12  1  0  0  0  0
 11 16  1  0  0  0  0
 12 13  1  0  0  0  0
 13 14  1  0  0  0  0
 14 15  1  0  0  0  0
 15 16  1  0  0  0  0
 10 11  1  0  0  0  0
 14 17  1  0  0  0  0
 17 18  1  0  0  0  0
 18 19  2  0  0  0  0
 18 20  1  0  0  0  0
 20 21  1  0  0  0  0
 21 22  4  0  0  0  0
 22 23  4  0  0  0  0
 23 24  4  0  0  0  0
 24 25  4  0  0  0  0
 25 26  4  0  0  0  0
 26 21  4  0  0  0  0
  8 27  1  0  0  0  0
 24 28  1  0  0  0  0
  1 29  1  0  0  0  0
 29 30  1  0  0  0  0
M  END
> <From> 
www.bindingDB.org

> <BindingDB Reactant_set_id>
50303833

> <Ligand InChI>
InChI=1S/C24H28N4OS/c1-16-4-6-18(7-5-16)26-24(30)27-19-10-12-28(13-11-19)23-14-17(2)25-22-9-8-20(29-3)15-21(22)23/h4-9,14-15,19H,10-13H2,1-3H3,(H2,26,27,30)

> <Ligand InChI Key>
ASIIHTXOSCVYBQ-UHFFFAOYSA-N

> <BindingDB MonomerID>
50067155

> <BindingDB Ligand Name>
CHEMBL3403276

> <Target Name Assigned by Curator or DataSource>
DNA gyrase subunit B

> <Target Source Organism According to Curator or DataSource>


> <Ki (nM)>


> <IC50 (nM)>
 11140

> <Kd (nM)>


> <EC50 (nM)>


> <kon (M-1-s-1)>


> <koff (s-1)>


> <pH>


> <Temp C>


> <Curation/DataSource>
ChEMBL

> <Article DOI>
10.1016/j.bmc.2015.03.004

> <PMID>
25801151

> <PubChem AID>


> <Patent Number>


> <Authors>
Medapi, B; Renuka, J; Saxena, S; Sridevi, JP; Medishetti, R; Kulkarni, P; Yogeeswari, P; Sriram, D

> <Institution>
Birla Institute of Technology&amp; Science-Pilani

> <Link to Ligand in BindingDB>
http://www.bindingdb.org/bind/chemsearch/marvin/MolStructure.jsp?monomerid=50067155

> <Link to Ligand-Target Pair in BindingDB>
http://www.bindingdb.org/jsp/dbsearch/PrimarySearch_ki.jsp?energyterm=kJ/mole&tag=pol&polymerid=50006452&target=DNA+gyrase+subunit+B&column=ki&startPg=0&Increment=50&submit=Search

> <Link to Ligand-Target Pair in BindingDB>
http://www.bindingdb.org/jsp/dbsearch/PrimarySearch_ki.jsp?energyterm=kJ/mole&tag=r21&monomerid=50067155&enzyme=DNA+gyrase+subunit+B&column=ki&startPg=0&Increment=50&submit=Search

> <Ligand HET ID in PDB>


> <PDB ID(s) for Ligand-Target Complex>


> <PubChem CID>
118729692

> <PubChem SID>
313045060

> <ChEBI ID of Ligand>


> <ChEMBL ID of Ligand>


> <DrugBank ID of Ligand>


> <IUPHAR_GRAC ID of Ligand>


> <KEGG ID of Ligand>


> <ZINC ID of Ligand>


> <Number of Protein Chains in Target (>1 implies a multichain complex)>
1

> <BindingDB Target Chain Sequence>
MAAQKNNAPKEYGADSITILEGLEAVRKRPGMYIGSTGERGLHHLIWEVVDNAVDEAMAGFATRVDVKIHADGSVEVRDDGRGIPVEMHATGMPTIDVVMTQLHAGGKFDGETYAVSGGLHGVGVSVVNALSTRLEATVLRDGYEWFQYYDRSVPGKLKQGGETKETGTTIRFWADPEIFETTDYNFETVARRLQEMAFLNKGLTIELTDERVTAEEVVDDVVKDTAEAPKTADEKAAEATGPSKVKHRVFHYPGGLVDYVKHINRTKTPIQQSIIDFDGKGPGHEVEIAMQWNAGYSESVHTFANTINTHEGGTHEEGFRAALTSVVNRYAKDKKLLKDKDPNLTGDDIREGLAAVISVKVAEPQFEGQTKTKLGNTEVKSFVQKICNEQLQHWFEANPAEAKTVVNKAVSSAQARIAARKARELVRRKSATDIGGLPGKLADCRSTDPSKSELYVVEGDSAGGSAKSGRDSMFQAILPLRGKIINVEKARIDRVLKNTEVQSIITALGTGIHDEFDISKLRYHKIVLMADADVDGQHISTLLLTLLFRFMKPLVENGHIFLAQPPLYKLKWQRSEPEFAYSDRERDGLLEAGRAAGKKINVDDGIQRYKGLGEMDAKELWETTMDPSVRVLRQVTLDDAAAADELFSILMGEDVEARRSFITRNAKDVRFLDV

> <PDB ID(s) of Target Chain>
4BAE

> <UniProt (SwissProt) Recommended Name of Target Chain>
DNA gyrase subunit B

> <UniProt (SwissProt) Entry Name of Target Chain>
GYRB_MYCSM

> <UniProt (SwissProt) Primary ID of Target Chain>
P0C559

> <UniProt (SwissProt) Secondary ID(s) of Target Chain>
P48355,Q59555

> <UniProt (SwissProt) Alternative ID(s) of Target Chain>


> <UniProt (TrEMBL) Submitted Name of Target Chain>


> <UniProt (TrEMBL) Entry Name of Target Chain>


> <UniProt (TrEMBL) Primary ID of Target Chain>


> <UniProt (TrEMBL) Secondary ID(s) of Target Chain>


> <UniProt (TrEMBL) Alternative ID(s) of Target Chain>


$$$$

  SciTegic04201612532D

 32 35  0  0  0  0            999 V2000
   -1.2964    1.4973    0.0000 N   0  0
   -2.6111    0.7486    0.0000 C   0  0
   -2.6111   -0.7486    0.0000 C   0  0
   -1.2964   -1.4973    0.0000 C   0  0
    0.0000   -0.7486    0.0000 C   0  0
    1.2964   -1.4973    0.0000 C   0  0
    2.5929   -0.7486    0.0000 C   0  0
    2.5929    0.7486    0.0000 C   0  0
    1.2964    1.4973    0.0000 C   0  0
    0.0000    0.7486    0.0000 C   0  0
   -3.9122   -1.4966    0.0000 C   0  0
   -4.9506   -0.8952    0.0000 O   0  0
   -1.2907   -2.9981    0.0000 N   0  0
   -2.5870   -3.7544    0.0000 C   0  0
   -2.5835   -5.2544    0.0000 C   0  0
   -3.8807   -6.0076    0.0000 C   0  0
   -5.1815   -5.2608    0.0000 C   0  0
   -5.1852   -3.7608    0.0000 C   0  0
   -3.8880   -3.0076    0.0000 C   0  0
   -6.4810   -6.0117    0.0000 N   0  0
   -7.7815   -5.2626    0.0000 C   0  0
   -9.0810   -6.0135    0.0000 C   0  0
  -10.3815   -5.2644    0.0000 C   0  0
  -14.2755   -7.5217    0.0000 N   0  0
  -14.2791   -6.0217    0.0000 C   0  0
  -12.9819   -5.2686    0.0000 C   0  0
  -11.6810   -6.0154    0.0000 N   0  0
  -11.6774   -7.5154    0.0000 C   0  0
  -12.9746   -8.2686    0.0000 C   0  0
   -3.9138   -2.4966    0.0000 O   0  0
  -15.5719   -8.2779    0.0000 C   0  0
  -15.5672   -9.4779    0.0000 C   0  0
  1  2  2  0
  2  3  1  0
  3  4  2  0
  4  5  1  0
  5  6  2  0
  6  7  1  0
  7  8  2  0
  8  9  1  0
  9 10  2  0
  1 10  1  0
  5 10  1  0
 11 12  2  0
  3 11  1  0
 14 15  1  0
 15 16  2  0
 16 17  1  0
 17 18  2  0
 18 19  1  0
 14 19  2  0
 21 22  1  0
 22 23  1  0
 20 21  1  0
 24 25  1  0
 25 26  1  0
 26 27  1  0
 27 28  1  0
 28 29  1  0
 24 29  1  0
 23 27  1  0
 17 20  1  0
 13 14  1  0
  4 13  1  0
 11 30  1  0
 24 31  1  0
 31 32  1  0
M  END
> <From> 
www.bindingDB.org

> <BindingDB Reactant_set_id>
50426750

> <Ligand InChI>
InChI=1S/C25H31N5O2/c1-2-29-14-16-30(17-15-29)13-5-12-26-19-8-10-20(11-9-19)28-24-21-6-3-4-7-23(21)27-18-22(24)25(31)32/h3-4,6-11,18,26H,2,5,12-17H2,1H3,(H,27,28)(H,31,32)

> <Ligand InChI Key>
XMKDXYIOGDNUGH-UHFFFAOYSA-N

> <BindingDB MonomerID>
50126176

> <BindingDB Ligand Name>
CHEMBL3628526

> <Target Name Assigned by Curator or DataSource>
DNA gyrase subunit B

> <Target Source Organism According to Curator or DataSource>


> <Ki (nM)>


> <IC50 (nM)>
 11320

> <Kd (nM)>


> <EC50 (nM)>


> <kon (M-1-s-1)>


> <koff (s-1)>


> <pH>


> <Temp C>


> <Curation/DataSource>
ChEMBL

> <Article DOI>
10.1016/j.ejmech.2015.06.032

> <PMID>
26318054

> <PubChem AID>


> <Patent Number>


> <Authors>
Medapi, B; Suryadevara, P; Renuka, J; Sridevi, JP; Yogeeswari, P; Sriram, D

> <Institution>
Birla Institute of Technology&amp;Science

> <Link to Ligand in BindingDB>
http://www.bindingdb.org/bind/chemsearch/marvin/MolStructure.jsp?monomerid=50126176

> <Link to Ligand-Target Pair in BindingDB>
http://www.bindingdb.org/jsp/dbsearch/PrimarySearch_ki.jsp?energyterm=kJ/mole&tag=pol&polymerid=50006452&target=DNA+gyrase+subunit+B&column=ki&startPg=0&Increment=50&submit=Search

> <Link to Ligand-Target Pair in BindingDB>
http://www.bindingdb.org/jsp/dbsearch/PrimarySearch_ki.jsp?energyterm=kJ/mole&tag=r21&monomerid=50126176&enzyme=DNA+gyrase+subunit+B&column=ki&startPg=0&Increment=50&submit=Search

> <Ligand HET ID in PDB>


> <PDB ID(s) for Ligand-Target Complex>


> <PubChem CID>
122193527

> <PubChem SID>
321902383

> <ChEBI ID of Ligand>


> <ChEMBL ID of Ligand>


> <DrugBank ID of Ligand>


> <IUPHAR_GRAC ID of Ligand>


> <KEGG ID of Ligand>


> <ZINC ID of Ligand>


> <Number of Protein Chains in Target (>1 implies a multichain complex)>
1

> <BindingDB Target Chain Sequence>
MAAQKNNAPKEYGADSITILEGLEAVRKRPGMYIGSTGERGLHHLIWEVVDNAVDEAMAGFATRVDVKIHADGSVEVRDDGRGIPVEMHATGMPTIDVVMTQLHAGGKFDGETYAVSGGLHGVGVSVVNALSTRLEATVLRDGYEWFQYYDRSVPGKLKQGGETKETGTTIRFWADPEIFETTDYNFETVARRLQEMAFLNKGLTIELTDERVTAEEVVDDVVKDTAEAPKTADEKAAEATGPSKVKHRVFHYPGGLVDYVKHINRTKTPIQQSIIDFDGKGPGHEVEIAMQWNAGYSESVHTFANTINTHEGGTHEEGFRAALTSVVNRYAKDKKLLKDKDPNLTGDDIREGLAAVISVKVAEPQFEGQTKTKLGNTEVKSFVQKICNEQLQHWFEANPAEAKTVVNKAVSSAQARIAARKARELVRRKSATDIGGLPGKLADCRSTDPSKSELYVVEGDSAGGSAKSGRDSMFQAILPLRGKIINVEKARIDRVLKNTEVQSIITALGTGIHDEFDISKLRYHKIVLMADADVDGQHISTLLLTLLFRFMKPLVENGHIFLAQPPLYKLKWQRSEPEFAYSDRERDGLLEAGRAAGKKINVDDGIQRYKGLGEMDAKELWETTMDPSVRVLRQVTLDDAAAADELFSILMGEDVEARRSFITRNAKDVRFLDV

> <PDB ID(s) of Target Chain>
4BAE

> <UniProt (SwissProt) Recommended Name of Target Chain>
DNA gyrase subunit B

> <UniProt (SwissProt) Entry Name of Target Chain>
GYRB_MYCSM

> <UniProt (SwissProt) Primary ID of Target Chain>
P0C559

> <UniProt (SwissProt) Secondary ID(s) of Target Chain>
P48355,Q59555

> <UniProt (SwissProt) Alternative ID(s) of Target Chain>


> <UniProt (TrEMBL) Submitted Name of Target Chain>


> <UniProt (TrEMBL) Entry Name of Target Chain>


> <UniProt (TrEMBL) Primary ID of Target Chain>


> <UniProt (TrEMBL) Secondary ID(s) of Target Chain>


> <UniProt (TrEMBL) Alternative ID(s) of Target Chain>


$$$$

  Mrv0541 03201611132D          

 26 29  0  0  0  0            999 V2000
    6.3946  -29.8646    0.0000 N   0  0  0  0  0  0  0  0  0  0  0  0
    5.6847  -30.2836    0.0000 C   0  0  0  0  0  0  0  0  0  0  0  0
    4.9679  -29.8752    0.0000 C   0  0  0  0  0  0  0  0  0  0  0  0
    4.9602  -29.0518    0.0000 N   0  0  0  0  0  0  0  0  0  0  0  0
    5.6742  -28.6335    0.0000 C   0  0  0  0  0  0  0  0  0  0  0  0
    6.3909  -29.0420    0.0000 C   0  0  0  0  0  0  0  0  0  0  0  0
    7.1121  -30.2690    0.0000 C   0  0  0  0  0  0  0  0  0  0  0  0
    7.8252  -29.8549    0.0000 N   0  0  0  0  0  0  0  0  0  0  0  0
    7.1190  -31.0965    0.0000 S   0  0  0  0  0  0  0  0  0  0  0  0
    2.9091  -28.6472    0.0000 S   0  0  0  0  0  0  0  0  0  0  0  0
    3.5780  -29.1315    0.0000 N   0  0  0  0  0  0  0  0  0  0  0  0
    4.2430  -28.6472    0.0000 C   0  0  0  0  0  0  0  0  0  0  0  0
    3.9902  -27.8632    0.0000 C   0  0  0  0  0  0  0  0  0  0  0  0
    3.1659  -27.8632    0.0000 C   0  0  0  0  0  0  0  0  0  0  0  0
    2.7538  -27.1480    0.0000 C   0  0  0  0  0  0  0  0  0  0  0  0
    3.1659  -26.4327    0.0000 C   0  0  0  0  0  0  0  0  0  0  0  0
    3.9902  -26.4327    0.0000 C   0  0  0  0  0  0  0  0  0  0  0  0
    4.4023  -27.1480    0.0000 C   0  0  0  0  0  0  0  0  0  0  0  0
    8.5613  -30.2202    0.0000 C   0  0  0  0  0  0  0  0  0  0  0  0
    9.2487  -29.7694    0.0000 C   0  0  0  0  0  0  0  0  0  0  0  0
    9.1976  -28.9441    0.0000 C   0  0  0  0  0  0  0  0  0  0  0  0
    9.8860  -28.4892    0.0000 C   0  0  0  0  0  0  0  0  0  0  0  0
   10.6252  -28.8596    0.0000 C   0  0  0  0  0  0  0  0  0  0  0  0
   10.6729  -29.6799    0.0000 C   0  0  0  0  0  0  0  0  0  0  0  0
    9.9846  -30.1348    0.0000 C   0  0  0  0  0  0  0  0  0  0  0  0
   11.3134  -28.4047    0.0000 Cl  0  0  0  0  0  0  0  0  0  0  0  0
  1  2  1  0  0  0  0
  2  3  1  0  0  0  0
  3  4  1  0  0  0  0
  4  5  1  0  0  0  0
  5  6  1  0  0  0  0
  1  6  1  0  0  0  0
  7  8  1  0  0  0  0
  7  9  2  0  0  0  0
  1  7  1  0  0  0  0
 10 11  4  0  0  0  0
 11 12  4  0  0  0  0
 12 13  4  0  0  0  0
 13 14  4  0  0  0  0
 10 14  4  0  0  0  0
 15 16  4  0  0  0  0
 16 17  4  0  0  0  0
 17 18  4  0  0  0  0
 13 18  4  0  0  0  0
 14 15  4  0  0  0  0
  4 12  1  0  0  0  0
 19 20  1  0  0  0  0
 20 21  4  0  0  0  0
 21 22  4  0  0  0  0
 22 23  4  0  0  0  0
 23 24  4  0  0  0  0
 24 25  4  0  0  0  0
 20 25  4  0  0  0  0
 23 26  1  0  0  0  0
  8 19  1  0  0  0  0
M  END
> <From> 
www.bindingDB.org

> <BindingDB Reactant_set_id>
50254214

> <Ligand InChI>
InChI=1S/C19H19ClN4S2/c20-15-7-5-14(6-8-15)13-21-19(25)24-11-9-23(10-12-24)18-16-3-1-2-4-17(16)26-22-18/h1-8H,9-13H2,(H,21,25)

> <Ligand InChI Key>
VHVHXGOJKMMGSV-UHFFFAOYSA-N

> <BindingDB MonomerID>
50037196

> <BindingDB Ligand Name>
CHEMBL3355809

> <Target Name Assigned by Curator or DataSource>
DNA gyrase subunit B

> <Target Source Organism According to Curator or DataSource>


> <Ki (nM)>


> <IC50 (nM)>
 11320

> <Kd (nM)>


> <EC50 (nM)>


> <kon (M-1-s-1)>


> <koff (s-1)>


> <pH>


> <Temp C>


> <Curation/DataSource>
ChEMBL

> <Article DOI>
10.1016/j.bmc.2014.10.016

> <PMID>
25456076

> <PubChem AID>


> <Patent Number>


> <Authors>
Reddy, KI; Srihari, K; Renuka, J; Sree, KS; Chuppala, A; Jeankumar, VU; Sridevi, JP; Babu, KS; Yogeeswari, P; Sriram, D

> <Institution>
TBA

> <Link to Ligand in BindingDB>
http://www.bindingdb.org/bind/chemsearch/marvin/MolStructure.jsp?monomerid=50037196

> <Link to Ligand-Target Pair in BindingDB>
http://www.bindingdb.org/jsp/dbsearch/PrimarySearch_ki.jsp?energyterm=kJ/mole&tag=pol&polymerid=50006452&target=DNA+gyrase+subunit+B&column=ki&startPg=0&Increment=50&submit=Search

> <Link to Ligand-Target Pair in BindingDB>
http://www.bindingdb.org/jsp/dbsearch/PrimarySearch_ki.jsp?energyterm=kJ/mole&tag=r21&monomerid=50037196&enzyme=DNA+gyrase+subunit+B&column=ki&startPg=0&Increment=50&submit=Search

> <Ligand HET ID in PDB>


> <PDB ID(s) for Ligand-Target Complex>


> <PubChem CID>
118721104

> <PubChem SID>
313067073

> <ChEBI ID of Ligand>


> <ChEMBL ID of Ligand>


> <DrugBank ID of Ligand>


> <IUPHAR_GRAC ID of Ligand>


> <KEGG ID of Ligand>


> <ZINC ID of Ligand>


> <Number of Protein Chains in Target (>1 implies a multichain complex)>
1

> <BindingDB Target Chain Sequence>
MAAQKNNAPKEYGADSITILEGLEAVRKRPGMYIGSTGERGLHHLIWEVVDNAVDEAMAGFATRVDVKIHADGSVEVRDDGRGIPVEMHATGMPTIDVVMTQLHAGGKFDGETYAVSGGLHGVGVSVVNALSTRLEATVLRDGYEWFQYYDRSVPGKLKQGGETKETGTTIRFWADPEIFETTDYNFETVARRLQEMAFLNKGLTIELTDERVTAEEVVDDVVKDTAEAPKTADEKAAEATGPSKVKHRVFHYPGGLVDYVKHINRTKTPIQQSIIDFDGKGPGHEVEIAMQWNAGYSESVHTFANTINTHEGGTHEEGFRAALTSVVNRYAKDKKLLKDKDPNLTGDDIREGLAAVISVKVAEPQFEGQTKTKLGNTEVKSFVQKICNEQLQHWFEANPAEAKTVVNKAVSSAQARIAARKARELVRRKSATDIGGLPGKLADCRSTDPSKSELYVVEGDSAGGSAKSGRDSMFQAILPLRGKIINVEKARIDRVLKNTEVQSIITALGTGIHDEFDISKLRYHKIVLMADADVDGQHISTLLLTLLFRFMKPLVENGHIFLAQPPLYKLKWQRSEPEFAYSDRERDGLLEAGRAAGKKINVDDGIQRYKGLGEMDAKELWETTMDPSVRVLRQVTLDDAAAADELFSILMGEDVEARRSFITRNAKDVRFLDV

> <PDB ID(s) of Target Chain>
4BAE

> <UniProt (SwissProt) Recommended Name of Target Chain>
DNA gyrase subunit B

> <UniProt (SwissProt) Entry Name of Target Chain>
GYRB_MYCSM

> <UniProt (SwissProt) Primary ID of Target Chain>
P0C559

> <UniProt (SwissProt) Secondary ID(s) of Target Chain>
P48355,Q59555

> <UniProt (SwissProt) Alternative ID(s) of Target Chain>


> <UniProt (TrEMBL) Submitted Name of Target Chain>


> <UniProt (TrEMBL) Entry Name of Target Chain>


> <UniProt (TrEMBL) Primary ID of Target Chain>


> <UniProt (TrEMBL) Secondary ID(s) of Target Chain>


> <UniProt (TrEMBL) Alternative ID(s) of Target Chain>


$$$$

  SciTegic04201612532D

 30 33  0  0  0  0            999 V2000
   -1.2964    1.4973    0.0000 N   0  0
   -2.6111    0.7486    0.0000 C   0  0
   -2.6111   -0.7486    0.0000 C   0  0
   -1.2964   -1.4973    0.0000 C   0  0
    0.0000   -0.7486    0.0000 C   0  0
    1.2964   -1.4973    0.0000 C   0  0
    2.5929   -0.7486    0.0000 C   0  0
    2.5929    0.7486    0.0000 C   0  0
    1.2964    1.4973    0.0000 C   0  0
    0.0000    0.7486    0.0000 C   0  0
   -3.9122   -1.4966    0.0000 C   0  0
   -4.9506   -0.8952    0.0000 O   0  0
   -1.2907   -2.9981    0.0000 N   0  0
   -2.5870   -3.7544    0.0000 C   0  0
   -2.5835   -5.2544    0.0000 C   0  0
   -3.8807   -6.0076    0.0000 C   0  0
   -5.1815   -5.2608    0.0000 C   0  0
   -5.1852   -3.7608    0.0000 C   0  0
   -3.8880   -3.0076    0.0000 C   0  0
   -6.4810   -6.0117    0.0000 N   0  0
   -7.7815   -5.2626    0.0000 C   0  0
   -9.0810   -6.0135    0.0000 C   0  0
  -10.3815   -5.2644    0.0000 C   0  0
  -14.2755   -7.5217    0.0000 O   0  0
  -14.2791   -6.0217    0.0000 C   0  0
  -12.9819   -5.2686    0.0000 C   0  0
  -11.6810   -6.0154    0.0000 N   0  0
  -11.6774   -7.5154    0.0000 C   0  0
  -12.9746   -8.2686    0.0000 C   0  0
   -3.9138   -2.4966    0.0000 O   0  0
  1  2  2  0
  2  3  1  0
  3  4  2  0
  4  5  1  0
  5  6  2  0
  6  7  1  0
  7  8  2  0
  8  9  1  0
  9 10  2  0
  1 10  1  0
  5 10  1  0
 11 12  2  0
  3 11  1  0
 14 15  1  0
 15 16  2  0
 16 17  1  0
 17 18  2  0
 18 19  1  0
 14 19  2  0
 21 22  1  0
 22 23  1  0
 20 21  1  0
 24 25  1  0
 25 26  1  0
 26 27  1  0
 27 28  1  0
 28 29  1  0
 24 29  1  0
 23 27  1  0
 17 20  1  0
 13 14  1  0
  4 13  1  0
 11 30  1  0
M  END
> <From> 
www.bindingDB.org

> <BindingDB Reactant_set_id>
50426758

> <Ligand InChI>
InChI=1S/C23H26N4O3/c28-23(29)20-16-25-21-5-2-1-4-19(21)22(20)26-18-8-6-17(7-9-18)24-10-3-11-27-12-14-30-15-13-27/h1-2,4-9,16,24H,3,10-15H2,(H,25,26)(H,28,29)

> <Ligand InChI Key>
PRDZDGBVCDSYFW-UHFFFAOYSA-N

> <BindingDB MonomerID>
50126182

> <BindingDB Ligand Name>
CHEMBL3628459

> <Target Name Assigned by Curator or DataSource>
DNA gyrase subunit B

> <Target Source Organism According to Curator or DataSource>


> <Ki (nM)>


> <IC50 (nM)>
 11330

> <Kd (nM)>


> <EC50 (nM)>


> <kon (M-1-s-1)>


> <koff (s-1)>


> <pH>


> <Temp C>


> <Curation/DataSource>
ChEMBL

> <Article DOI>
10.1016/j.ejmech.2015.06.032

> <PMID>
26318054

> <PubChem AID>


> <Patent Number>


> <Authors>
Medapi, B; Suryadevara, P; Renuka, J; Sridevi, JP; Yogeeswari, P; Sriram, D

> <Institution>
Birla Institute of Technology&amp;Science

> <Link to Ligand in BindingDB>
http://www.bindingdb.org/bind/chemsearch/marvin/MolStructure.jsp?monomerid=50126182

> <Link to Ligand-Target Pair in BindingDB>
http://www.bindingdb.org/jsp/dbsearch/PrimarySearch_ki.jsp?energyterm=kJ/mole&tag=pol&polymerid=50006452&target=DNA+gyrase+subunit+B&column=ki&startPg=0&Increment=50&submit=Search

> <Link to Ligand-Target Pair in BindingDB>
http://www.bindingdb.org/jsp/dbsearch/PrimarySearch_ki.jsp?energyterm=kJ/mole&tag=r21&monomerid=50126182&enzyme=DNA+gyrase+subunit+B&column=ki&startPg=0&Increment=50&submit=Search

> <Ligand HET ID in PDB>


> <PDB ID(s) for Ligand-Target Complex>


> <PubChem CID>
122193473

> <PubChem SID>
321902389

> <ChEBI ID of Ligand>


> <ChEMBL ID of Ligand>


> <DrugBank ID of Ligand>


> <IUPHAR_GRAC ID of Ligand>


> <KEGG ID of Ligand>


> <ZINC ID of Ligand>


> <Number of Protein Chains in Target (>1 implies a multichain complex)>
1

> <BindingDB Target Chain Sequence>
MAAQKNNAPKEYGADSITILEGLEAVRKRPGMYIGSTGERGLHHLIWEVVDNAVDEAMAGFATRVDVKIHADGSVEVRDDGRGIPVEMHATGMPTIDVVMTQLHAGGKFDGETYAVSGGLHGVGVSVVNALSTRLEATVLRDGYEWFQYYDRSVPGKLKQGGETKETGTTIRFWADPEIFETTDYNFETVARRLQEMAFLNKGLTIELTDERVTAEEVVDDVVKDTAEAPKTADEKAAEATGPSKVKHRVFHYPGGLVDYVKHINRTKTPIQQSIIDFDGKGPGHEVEIAMQWNAGYSESVHTFANTINTHEGGTHEEGFRAALTSVVNRYAKDKKLLKDKDPNLTGDDIREGLAAVISVKVAEPQFEGQTKTKLGNTEVKSFVQKICNEQLQHWFEANPAEAKTVVNKAVSSAQARIAARKARELVRRKSATDIGGLPGKLADCRSTDPSKSELYVVEGDSAGGSAKSGRDSMFQAILPLRGKIINVEKARIDRVLKNTEVQSIITALGTGIHDEFDISKLRYHKIVLMADADVDGQHISTLLLTLLFRFMKPLVENGHIFLAQPPLYKLKWQRSEPEFAYSDRERDGLLEAGRAAGKKINVDDGIQRYKGLGEMDAKELWETTMDPSVRVLRQVTLDDAAAADELFSILMGEDVEARRSFITRNAKDVRFLDV

> <PDB ID(s) of Target Chain>
4BAE

> <UniProt (SwissProt) Recommended Name of Target Chain>
DNA gyrase subunit B

> <UniProt (SwissProt) Entry Name of Target Chain>
GYRB_MYCSM

> <UniProt (SwissProt) Primary ID of Target Chain>
P0C559

> <UniProt (SwissProt) Secondary ID(s) of Target Chain>
P48355,Q59555

> <UniProt (SwissProt) Alternative ID(s) of Target Chain>


> <UniProt (TrEMBL) Submitted Name of Target Chain>


> <UniProt (TrEMBL) Entry Name of Target Chain>


> <UniProt (TrEMBL) Primary ID of Target Chain>


> <UniProt (TrEMBL) Secondary ID(s) of Target Chain>


> <UniProt (TrEMBL) Alternative ID(s) of Target Chain>


$$$$

  SciTegic04201612532D

 33 36  0  0  0  0            999 V2000
   -1.2964    1.4973    0.0000 N   0  0
   -2.6111    0.7486    0.0000 C   0  0
   -2.6111   -0.7486    0.0000 C   0  0
   -1.2964   -1.4973    0.0000 C   0  0
    0.0000   -0.7486    0.0000 C   0  0
    1.2964   -1.4973    0.0000 C   0  0
    2.5929   -0.7486    0.0000 C   0  0
    2.5929    0.7486    0.0000 C   0  0
    1.2964    1.4973    0.0000 C   0  0
    0.0000    0.7486    0.0000 C   0  0
   -3.9122   -1.4966    0.0000 C   0  0
   -3.9138   -2.4966    0.0000 O   0  0
   -5.2109   -0.7445    0.0000 O   0  0
   -1.2907   -2.9981    0.0000 N   0  0
   -2.5870   -3.7544    0.0000 C   0  0
   -2.5835   -5.2544    0.0000 C   0  0
   -3.8807   -6.0076    0.0000 C   0  0
   -5.1815   -5.2608    0.0000 C   0  0
   -5.1852   -3.7608    0.0000 C   0  0
   -3.8880   -3.0076    0.0000 C   0  0
   -6.4810   -6.0117    0.0000 N   0  0
   -7.7815   -5.2626    0.0000 C   0  0
   -9.0810   -6.0135    0.0000 C   0  0
  -10.3815   -5.2644    0.0000 C   0  0
  -14.2755   -7.5217    0.0000 O   0  0
  -14.2791   -6.0217    0.0000 C   0  0
  -12.9819   -5.2686    0.0000 C   0  0
  -11.6810   -6.0154    0.0000 N   0  0
  -11.6774   -7.5154    0.0000 C   0  0
  -12.9746   -8.2686    0.0000 C   0  0
   -6.5121   -1.4924    0.0000 C   0  0
   -7.5506   -0.8910    0.0000 C   0  0
    3.6321   -1.3486    0.0000 F   0  0
  1  2  2  0
  2  3  1  0
  3  4  2  0
  4  5  1  0
  5  6  2  0
  6  7  1  0
  7  8  2  0
  8  9  1  0
  9 10  2  0
  1 10  1  0
  5 10  1  0
 11 12  2  0
 11 13  1  0
  3 11  1  0
 15 16  1  0
 16 17  2  0
 17 18  1  0
 18 19  2  0
 19 20  1  0
 15 20  2  0
 22 23  1  0
 23 24  1  0
 21 22  1  0
 25 26  1  0
 26 27  1  0
 27 28  1  0
 28 29  1  0
 29 30  1  0
 25 30  1  0
 24 28  1  0
 18 21  1  0
 14 15  1  0
  4 14  1  0
 31 32  1  0
 13 31  1  0
  7 33  1  0
M  END
> <From> 
www.bindingDB.org

> <BindingDB Reactant_set_id>
50426788

> <Ligand InChI>
InChI=1S/C25H29FN4O3/c1-2-33-25(31)22-17-28-23-9-4-18(26)16-21(23)24(22)29-20-7-5-19(6-8-20)27-10-3-11-30-12-14-32-15-13-30/h4-9,16-17,27H,2-3,10-15H2,1H3,(H,28,29)

> <Ligand InChI Key>
GAHPTTKQDMIXDB-UHFFFAOYSA-N

> <BindingDB MonomerID>
50126835

> <BindingDB Ligand Name>
CHEMBL3628353

> <Target Name Assigned by Curator or DataSource>
DNA gyrase subunit B

> <Target Source Organism According to Curator or DataSource>


> <Ki (nM)>


> <IC50 (nM)>
 11340

> <Kd (nM)>


> <EC50 (nM)>


> <kon (M-1-s-1)>


> <koff (s-1)>


> <pH>


> <Temp C>


> <Curation/DataSource>
ChEMBL

> <Article DOI>
10.1016/j.ejmech.2015.06.032

> <PMID>
26318054

> <PubChem AID>


> <Patent Number>


> <Authors>
Medapi, B; Suryadevara, P; Renuka, J; Sridevi, JP; Yogeeswari, P; Sriram, D

> <Institution>
Birla Institute of Technology&amp;Science

> <Link to Ligand in BindingDB>
http://www.bindingdb.org/bind/chemsearch/marvin/MolStructure.jsp?monomerid=50126835

> <Link to Ligand-Target Pair in BindingDB>
http://www.bindingdb.org/jsp/dbsearch/PrimarySearch_ki.jsp?energyterm=kJ/mole&tag=pol&polymerid=50006452&target=DNA+gyrase+subunit+B&column=ki&startPg=0&Increment=50&submit=Search

> <Link to Ligand-Target Pair in BindingDB>
http://www.bindingdb.org/jsp/dbsearch/PrimarySearch_ki.jsp?energyterm=kJ/mole&tag=r21&monomerid=50126835&enzyme=DNA+gyrase+subunit+B&column=ki&startPg=0&Increment=50&submit=Search

> <Ligand HET ID in PDB>


> <PDB ID(s) for Ligand-Target Complex>


> <PubChem CID>
122193394

> <PubChem SID>
104018903

> <ChEBI ID of Ligand>


> <ChEMBL ID of Ligand>
CHEMBL34709

> <DrugBank ID of Ligand>


> <IUPHAR_GRAC ID of Ligand>


> <KEGG ID of Ligand>


> <ZINC ID of Ligand>
ZINC13494221

> <Number of Protein Chains in Target (>1 implies a multichain complex)>
1

> <BindingDB Target Chain Sequence>
MAAQKNNAPKEYGADSITILEGLEAVRKRPGMYIGSTGERGLHHLIWEVVDNAVDEAMAGFATRVDVKIHADGSVEVRDDGRGIPVEMHATGMPTIDVVMTQLHAGGKFDGETYAVSGGLHGVGVSVVNALSTRLEATVLRDGYEWFQYYDRSVPGKLKQGGETKETGTTIRFWADPEIFETTDYNFETVARRLQEMAFLNKGLTIELTDERVTAEEVVDDVVKDTAEAPKTADEKAAEATGPSKVKHRVFHYPGGLVDYVKHINRTKTPIQQSIIDFDGKGPGHEVEIAMQWNAGYSESVHTFANTINTHEGGTHEEGFRAALTSVVNRYAKDKKLLKDKDPNLTGDDIREGLAAVISVKVAEPQFEGQTKTKLGNTEVKSFVQKICNEQLQHWFEANPAEAKTVVNKAVSSAQARIAARKARELVRRKSATDIGGLPGKLADCRSTDPSKSELYVVEGDSAGGSAKSGRDSMFQAILPLRGKIINVEKARIDRVLKNTEVQSIITALGTGIHDEFDISKLRYHKIVLMADADVDGQHISTLLLTLLFRFMKPLVENGHIFLAQPPLYKLKWQRSEPEFAYSDRERDGLLEAGRAAGKKINVDDGIQRYKGLGEMDAKELWETTMDPSVRVLRQVTLDDAAAADELFSILMGEDVEARRSFITRNAKDVRFLDV

> <PDB ID(s) of Target Chain>
4BAE

> <UniProt (SwissProt) Recommended Name of Target Chain>
DNA gyrase subunit B

> <UniProt (SwissProt) Entry Name of Target Chain>
GYRB_MYCSM

> <UniProt (SwissProt) Primary ID of Target Chain>
P0C559

> <UniProt (SwissProt) Secondary ID(s) of Target Chain>
P48355,Q59555

> <UniProt (SwissProt) Alternative ID(s) of Target Chain>


> <UniProt (TrEMBL) Submitted Name of Target Chain>


> <UniProt (TrEMBL) Entry Name of Target Chain>


> <UniProt (TrEMBL) Primary ID of Target Chain>


> <UniProt (TrEMBL) Secondary ID(s) of Target Chain>


> <UniProt (TrEMBL) Alternative ID(s) of Target Chain>


$$$$

  Mrv0541 04171609262D          

 25 27  0  0  0  0            999 V2000
    0.7145   -0.4125    0.0000 C   0  0  0  0  0  0  0  0  0  0  0  0
    0.7145    0.4125    0.0000 C   0  0  0  0  0  0  0  0  0  0  0  0
    0.0000    0.8250    0.0000 C   0  0  0  0  0  0  0  0  0  0  0  0
   -0.7145    0.4125    0.0000 C   0  0  0  0  0  0  0  0  0  0  0  0
   -0.7145   -0.4125    0.0000 C   0  0  0  0  0  0  0  0  0  0  0  0
    0.0000   -0.8250    0.0000 C   0  0  0  0  0  0  0  0  0  0  0  0
   -1.4293   -0.8252    0.0000 C   0  0  0  0  0  0  0  0  0  0  0  0
   -2.1731   -0.4848    0.0000 S   0  0  0  0  0  0  0  0  0  0  0  0
   -2.7242   -1.0988    0.0000 C   0  0  0  0  0  0  0  0  0  0  0  0
   -2.3106   -1.8127    0.0000 C   0  0  0  0  0  0  0  0  0  0  0  0
   -1.5039   -1.6398    0.0000 C   0  0  0  0  0  0  0  0  0  0  0  0
   -2.6429   -2.5667    0.0000 C   0  0  0  0  0  0  0  0  0  0  0  0
   -2.2534   -3.0994    0.0000 O   0  0  0  0  0  0  0  0  0  0  0  0
   -3.2991   -2.6378    0.0000 N   0  0  0  0  0  0  0  0  0  0  0  0
   -3.5437   -1.0123    0.0000 N   0  0  0  0  0  0  0  0  0  0  0  0
   -3.8796   -0.2582    0.0000 C   0  0  0  0  0  0  0  0  0  0  0  0
   -4.7005   -0.1715    0.0000 N   0  0  0  0  0  0  0  0  0  0  0  0
   -3.4915    0.2757    0.0000 O   0  0  0  0  0  0  0  0  0  0  0  0
   -5.0363    0.5825    0.0000 C   0  0  0  0  0  0  0  0  0  0  0  0
   -5.8566    0.6703    0.0000 C   0  0  0  0  0  0  0  0  0  0  0  0
   -6.1908    1.4246    0.0000 C   0  0  0  0  0  0  0  0  0  0  0  0
   -5.7046    2.0912    0.0000 C   0  0  0  0  0  0  0  0  0  0  0  0
   -4.8843    2.0034    0.0000 C   0  0  0  0  0  0  0  0  0  0  0  0
   -4.5501    1.2491    0.0000 C   0  0  0  0  0  0  0  0  0  0  0  0
   -5.9719    2.6946    0.0000 F   0  0  0  0  0  0  0  0  0  0  0  0
  1  2  4  0  0  0  0
  2  3  4  0  0  0  0
  3  4  4  0  0  0  0
  4  5  4  0  0  0  0
  5  6  4  0  0  0  0
  6  1  4  0  0  0  0
  7  8  4  0  0  0  0
  8  9  4  0  0  0  0
  9 10  4  0  0  0  0
 10 11  4  0  0  0  0
 11  7  4  0  0  0  0
  5  7  1  0  0  0  0
 10 12  1  0  0  0  0
 12 13  2  0  0  0  0
 12 14  1  0  0  0  0
  9 15  1  0  0  0  0
 15 16  1  0  0  0  0
 16 17  1  0  0  0  0
 16 18  2  0  0  0  0
 17 19  1  0  0  0  0
 19 20  4  0  0  0  0
 20 21  4  0  0  0  0
 21 22  4  0  0  0  0
 22 23  4  0  0  0  0
 23 24  4  0  0  0  0
 24 19  4  0  0  0  0
 22 25  1  0  0  0  0
M  END
> <From> 
www.bindingDB.org

> <BindingDB Reactant_set_id>
50302316

> <Ligand InChI>
InChI=1S/C18H14FN3O2S/c19-12-6-8-13(9-7-12)21-18(24)22-17-14(16(20)23)10-15(25-17)11-4-2-1-3-5-11/h1-10H,(H2,20,23)(H2,21,22,24)

> <Ligand InChI Key>
GPYMRNVMNPRDHN-UHFFFAOYSA-N

> <BindingDB MonomerID>
50066082

> <BindingDB Ligand Name>
CHEMBL3402931

> <Target Name Assigned by Curator or DataSource>
DNA gyrase subunit B

> <Target Source Organism According to Curator or DataSource>


> <Ki (nM)>


> <IC50 (nM)>
 11450

> <Kd (nM)>


> <EC50 (nM)>


> <kon (M-1-s-1)>


> <koff (s-1)>


> <pH>


> <Temp C>
25.00

> <Curation/DataSource>
ChEMBL

> <Article DOI>
10.1016/j.bmc.2015.02.032

> <PMID>
25766629

> <PubChem AID>


> <Patent Number>


> <Authors>
Saxena, S; Samala, G; Renuka, J; Sridevi, JP; Yogeeswari, P; Sriram, D

> <Institution>
Birla Institute of Technology&amp; Science-Pilani

> <Link to Ligand in BindingDB>
http://www.bindingdb.org/bind/chemsearch/marvin/MolStructure.jsp?monomerid=50066082

> <Link to Ligand-Target Pair in BindingDB>
http://www.bindingdb.org/jsp/dbsearch/PrimarySearch_ki.jsp?energyterm=kJ/mole&tag=pol&polymerid=50006452&target=DNA+gyrase+subunit+B&column=ki&startPg=0&Increment=50&submit=Search

> <Link to Ligand-Target Pair in BindingDB>
http://www.bindingdb.org/jsp/dbsearch/PrimarySearch_ki.jsp?energyterm=kJ/mole&tag=r21&monomerid=50066082&enzyme=DNA+gyrase+subunit+B&column=ki&startPg=0&Increment=50&submit=Search

> <Ligand HET ID in PDB>


> <PDB ID(s) for Ligand-Target Complex>


> <PubChem CID>
9535395

> <PubChem SID>
313071609

> <ChEBI ID of Ligand>


> <ChEMBL ID of Ligand>


> <DrugBank ID of Ligand>


> <IUPHAR_GRAC ID of Ligand>


> <KEGG ID of Ligand>


> <ZINC ID of Ligand>


> <Number of Protein Chains in Target (>1 implies a multichain complex)>
1

> <BindingDB Target Chain Sequence>
MAAQKNNAPKEYGADSITILEGLEAVRKRPGMYIGSTGERGLHHLIWEVVDNAVDEAMAGFATRVDVKIHADGSVEVRDDGRGIPVEMHATGMPTIDVVMTQLHAGGKFDGETYAVSGGLHGVGVSVVNALSTRLEATVLRDGYEWFQYYDRSVPGKLKQGGETKETGTTIRFWADPEIFETTDYNFETVARRLQEMAFLNKGLTIELTDERVTAEEVVDDVVKDTAEAPKTADEKAAEATGPSKVKHRVFHYPGGLVDYVKHINRTKTPIQQSIIDFDGKGPGHEVEIAMQWNAGYSESVHTFANTINTHEGGTHEEGFRAALTSVVNRYAKDKKLLKDKDPNLTGDDIREGLAAVISVKVAEPQFEGQTKTKLGNTEVKSFVQKICNEQLQHWFEANPAEAKTVVNKAVSSAQARIAARKARELVRRKSATDIGGLPGKLADCRSTDPSKSELYVVEGDSAGGSAKSGRDSMFQAILPLRGKIINVEKARIDRVLKNTEVQSIITALGTGIHDEFDISKLRYHKIVLMADADVDGQHISTLLLTLLFRFMKPLVENGHIFLAQPPLYKLKWQRSEPEFAYSDRERDGLLEAGRAAGKKINVDDGIQRYKGLGEMDAKELWETTMDPSVRVLRQVTLDDAAAADELFSILMGEDVEARRSFITRNAKDVRFLDV

> <PDB ID(s) of Target Chain>
4BAE

> <UniProt (SwissProt) Recommended Name of Target Chain>
DNA gyrase subunit B

> <UniProt (SwissProt) Entry Name of Target Chain>
GYRB_MYCSM

> <UniProt (SwissProt) Primary ID of Target Chain>
P0C559

> <UniProt (SwissProt) Secondary ID(s) of Target Chain>
P48355,Q59555

> <UniProt (SwissProt) Alternative ID(s) of Target Chain>


> <UniProt (TrEMBL) Submitted Name of Target Chain>


> <UniProt (TrEMBL) Entry Name of Target Chain>


> <UniProt (TrEMBL) Primary ID of Target Chain>


> <UniProt (TrEMBL) Secondary ID(s) of Target Chain>


> <UniProt (TrEMBL) Alternative ID(s) of Target Chain>


$$$$

  SciTegic09081514182D

 30 33  0  0  0  0            999 V2000
   -2.6111    0.7486    0.0000 C   0  0
   -2.6111   -0.7486    0.0000 C   0  0
   -1.2964   -1.4973    0.0000 C   0  0
   -1.2964    1.4973    0.0000 C   0  0
    0.0000    0.7486    0.0000 C   0  0
    0.0000   -0.7486    0.0000 C   0  0
    1.2964   -1.4973    0.0000 N   0  0
    2.5929   -0.7486    0.0000 C   0  0
    2.5929    0.7486    0.0000 C   0  0
    1.2964    1.4973    0.0000 C   0  0
    1.2964    2.9980    0.0000 N   0  0
   -0.0014    3.7503    0.0000 C   0  0
    0.0011    5.2503    0.0000 C   0  0
    1.3014    5.9981    0.0000 C   0  0
    2.5992    5.2460    0.0000 C   0  0
    2.5967    3.7460    0.0000 C   0  0
    1.3069    7.4990    0.0000 N   0  0
    2.6090    8.2454    0.0000 C   0  0
    3.6462    7.6419    0.0000 O   0  0
    2.6145    9.7462    0.0000 N   0  0
    3.9166   10.4926    0.0000 C   0  0
    3.9243   11.9926    0.0000 C   0  0
    5.2272   12.7360    0.0000 C   0  0
    6.5224   11.9794    0.0000 C   0  0
    6.5147   10.4794    0.0000 C   0  0
    5.2119    9.7360    0.0000 C   0  0
    3.6321   -1.3486    0.0000 C   0  0
    7.5647   12.5740    0.0000 C   0  0
   -3.9091    1.5019    0.0000 O   0  0
   -3.9072    2.7019    0.0000 C   0  0
  1  2  2  0
  2  3  1  0
  3  6  2  0
  5  4  2  0
  4  1  1  0
  5  6  1  0
  6  7  1  0
  7  8  2  0
  8  9  1  0
  9 10  2  0
 10  5  1  0
 11 12  1  0
 11 16  1  0
 12 13  1  0
 13 14  1  0
 14 15  1  0
 15 16  1  0
 10 11  1  0
 14 17  1  0
 17 18  1  0
 18 19  2  0
 18 20  1  0
 20 21  1  0
 21 22  2  0
 22 23  1  0
 23 24  2  0
 24 25  1  0
 25 26  2  0
 26 21  1  0
  8 27  1  0
 24 28  1  0
  1 29  1  0
 29 30  1  0
M  END
> <From> 
www.bindingDB.org

> <BindingDB Reactant_set_id>
50303807

> <Ligand InChI>
InChI=1S/C24H28N4O2/c1-16-4-6-18(7-5-16)26-24(29)27-19-10-12-28(13-11-19)23-14-17(2)25-22-9-8-20(30-3)15-21(22)23/h4-9,14-15,19H,10-13H2,1-3H3,(H2,26,27,29)

> <Ligand InChI Key>
QUDUGWKIWZIRLQ-UHFFFAOYSA-N

> <BindingDB MonomerID>
50066954

> <BindingDB Ligand Name>
CHEMBL3403252

> <Target Name Assigned by Curator or DataSource>
DNA gyrase subunit B

> <Target Source Organism According to Curator or DataSource>


> <Ki (nM)>


> <IC50 (nM)>
 11480

> <Kd (nM)>


> <EC50 (nM)>


> <kon (M-1-s-1)>


> <koff (s-1)>


> <pH>


> <Temp C>


> <Curation/DataSource>
ChEMBL

> <Article DOI>
10.1016/j.bmc.2015.03.004

> <PMID>
25801151

> <PubChem AID>


> <Patent Number>


> <Authors>
Medapi, B; Renuka, J; Saxena, S; Sridevi, JP; Medishetti, R; Kulkarni, P; Yogeeswari, P; Sriram, D

> <Institution>
Birla Institute of Technology&amp; Science-Pilani

> <Link to Ligand in BindingDB>
http://www.bindingdb.org/bind/chemsearch/marvin/MolStructure.jsp?monomerid=50066954

> <Link to Ligand-Target Pair in BindingDB>
http://www.bindingdb.org/jsp/dbsearch/PrimarySearch_ki.jsp?energyterm=kJ/mole&tag=pol&polymerid=50006452&target=DNA+gyrase+subunit+B&column=ki&startPg=0&Increment=50&submit=Search

> <Link to Ligand-Target Pair in BindingDB>
http://www.bindingdb.org/jsp/dbsearch/PrimarySearch_ki.jsp?energyterm=kJ/mole&tag=r21&monomerid=50066954&enzyme=DNA+gyrase+subunit+B&column=ki&startPg=0&Increment=50&submit=Search

> <Ligand HET ID in PDB>


> <PDB ID(s) for Ligand-Target Complex>


> <PubChem CID>
118729668

> <PubChem SID>
103961490

> <ChEBI ID of Ligand>


> <ChEMBL ID of Ligand>
CHEMBL30930

> <DrugBank ID of Ligand>


> <IUPHAR_GRAC ID of Ligand>


> <KEGG ID of Ligand>


> <ZINC ID of Ligand>
ZINC13781216

> <Number of Protein Chains in Target (>1 implies a multichain complex)>
1

> <BindingDB Target Chain Sequence>
MAAQKNNAPKEYGADSITILEGLEAVRKRPGMYIGSTGERGLHHLIWEVVDNAVDEAMAGFATRVDVKIHADGSVEVRDDGRGIPVEMHATGMPTIDVVMTQLHAGGKFDGETYAVSGGLHGVGVSVVNALSTRLEATVLRDGYEWFQYYDRSVPGKLKQGGETKETGTTIRFWADPEIFETTDYNFETVARRLQEMAFLNKGLTIELTDERVTAEEVVDDVVKDTAEAPKTADEKAAEATGPSKVKHRVFHYPGGLVDYVKHINRTKTPIQQSIIDFDGKGPGHEVEIAMQWNAGYSESVHTFANTINTHEGGTHEEGFRAALTSVVNRYAKDKKLLKDKDPNLTGDDIREGLAAVISVKVAEPQFEGQTKTKLGNTEVKSFVQKICNEQLQHWFEANPAEAKTVVNKAVSSAQARIAARKARELVRRKSATDIGGLPGKLADCRSTDPSKSELYVVEGDSAGGSAKSGRDSMFQAILPLRGKIINVEKARIDRVLKNTEVQSIITALGTGIHDEFDISKLRYHKIVLMADADVDGQHISTLLLTLLFRFMKPLVENGHIFLAQPPLYKLKWQRSEPEFAYSDRERDGLLEAGRAAGKKINVDDGIQRYKGLGEMDAKELWETTMDPSVRVLRQVTLDDAAAADELFSILMGEDVEARRSFITRNAKDVRFLDV

> <PDB ID(s) of Target Chain>
4BAE

> <UniProt (SwissProt) Recommended Name of Target Chain>
DNA gyrase subunit B

> <UniProt (SwissProt) Entry Name of Target Chain>
GYRB_MYCSM

> <UniProt (SwissProt) Primary ID of Target Chain>
P0C559

> <UniProt (SwissProt) Secondary ID(s) of Target Chain>
P48355,Q59555

> <UniProt (SwissProt) Alternative ID(s) of Target Chain>


> <UniProt (TrEMBL) Submitted Name of Target Chain>


> <UniProt (TrEMBL) Entry Name of Target Chain>


> <UniProt (TrEMBL) Primary ID of Target Chain>


> <UniProt (TrEMBL) Secondary ID(s) of Target Chain>


> <UniProt (TrEMBL) Alternative ID(s) of Target Chain>


$$$$

  SciTegic04201612532D

 34 37  0  0  0  0            999 V2000
   -1.2964    1.4973    0.0000 N   0  0
   -2.6111    0.7486    0.0000 C   0  0
   -2.6111   -0.7486    0.0000 C   0  0
   -1.2964   -1.4973    0.0000 C   0  0
    0.0000   -0.7486    0.0000 C   0  0
    1.2964   -1.4973    0.0000 C   0  0
    2.5929   -0.7486    0.0000 C   0  0
    2.5929    0.7486    0.0000 C   0  0
    1.2964    1.4973    0.0000 C   0  0
    0.0000    0.7486    0.0000 C   0  0
   -3.9122   -1.4966    0.0000 C   0  0
   -3.9138   -2.4966    0.0000 O   0  0
   -5.2109   -0.7445    0.0000 O   0  0
   -1.2907   -2.9981    0.0000 N   0  0
   -2.5870   -3.7544    0.0000 C   0  0
   -2.5835   -5.2544    0.0000 C   0  0
   -3.8807   -6.0076    0.0000 C   0  0
   -5.1815   -5.2608    0.0000 C   0  0
   -5.1852   -3.7608    0.0000 C   0  0
   -3.8880   -3.0076    0.0000 C   0  0
   -6.4810   -6.0117    0.0000 N   0  0
   -7.7815   -5.2626    0.0000 C   0  0
   -9.0810   -6.0135    0.0000 C   0  0
  -10.3815   -5.2644    0.0000 C   0  0
  -14.2755   -7.5217    0.0000 N   0  0
  -14.2791   -6.0217    0.0000 C   0  0
  -12.9819   -5.2686    0.0000 C   0  0
  -11.6810   -6.0154    0.0000 N   0  0
  -11.6774   -7.5154    0.0000 C   0  0
  -12.9746   -8.2686    0.0000 C   0  0
   -6.5121   -1.4924    0.0000 C   0  0
   -7.5506   -0.8910    0.0000 C   0  0
  -15.5719   -8.2779    0.0000 C   0  0
  -15.5672   -9.4779    0.0000 C   0  0
  1  2  2  0
  2  3  1  0
  3  4  2  0
  4  5  1  0
  5  6  2  0
  6  7  1  0
  7  8  2  0
  8  9  1  0
  9 10  2  0
  1 10  1  0
  5 10  1  0
 11 12  2  0
 11 13  1  0
  3 11  1  0
 15 16  1  0
 16 17  2  0
 17 18  1  0
 18 19  2  0
 19 20  1  0
 15 20  2  0
 22 23  1  0
 23 24  1  0
 21 22  1  0
 25 26  1  0
 26 27  1  0
 27 28  1  0
 28 29  1  0
 29 30  1  0
 25 30  1  0
 24 28  1  0
 18 21  1  0
 14 15  1  0
  4 14  1  0
 31 32  1  0
 13 31  1  0
 25 33  1  0
 33 34  1  0
M  END
> <From> 
www.bindingDB.org

> <BindingDB Reactant_set_id>
50426782

> <Ligand InChI>
InChI=1S/C27H35N5O2/c1-3-31-16-18-32(19-17-31)15-7-14-28-21-10-12-22(13-11-21)30-26-23-8-5-6-9-25(23)29-20-24(26)27(33)34-4-2/h5-6,8-13,20,28H,3-4,7,14-19H2,1-2H3,(H,29,30)

> <Ligand InChI Key>
JGOCJHHDZOFIHK-UHFFFAOYSA-N

> <BindingDB MonomerID>
50126826

> <BindingDB Ligand Name>
CHEMBL3628359

> <Target Name Assigned by Curator or DataSource>
DNA gyrase subunit B

> <Target Source Organism According to Curator or DataSource>


> <Ki (nM)>


> <IC50 (nM)>
 11720

> <Kd (nM)>


> <EC50 (nM)>


> <kon (M-1-s-1)>


> <koff (s-1)>


> <pH>


> <Temp C>


> <Curation/DataSource>
ChEMBL

> <Article DOI>
10.1016/j.ejmech.2015.06.032

> <PMID>
26318054

> <PubChem AID>


> <Patent Number>


> <Authors>
Medapi, B; Suryadevara, P; Renuka, J; Sridevi, JP; Yogeeswari, P; Sriram, D

> <Institution>
Birla Institute of Technology&amp;Science

> <Link to Ligand in BindingDB>
http://www.bindingdb.org/bind/chemsearch/marvin/MolStructure.jsp?monomerid=50126826

> <Link to Ligand-Target Pair in BindingDB>
http://www.bindingdb.org/jsp/dbsearch/PrimarySearch_ki.jsp?energyterm=kJ/mole&tag=pol&polymerid=50006452&target=DNA+gyrase+subunit+B&column=ki&startPg=0&Increment=50&submit=Search

> <Link to Ligand-Target Pair in BindingDB>
http://www.bindingdb.org/jsp/dbsearch/PrimarySearch_ki.jsp?energyterm=kJ/mole&tag=r21&monomerid=50126826&enzyme=DNA+gyrase+subunit+B&column=ki&startPg=0&Increment=50&submit=Search

> <Ligand HET ID in PDB>
Y27

> <PDB ID(s) for Ligand-Target Complex>
1Q8T,2ETR,2GNF,2GNJ,2H9V

> <PubChem CID>
122193400

> <PubChem SID>
104018894

> <ChEBI ID of Ligand>


> <ChEMBL ID of Ligand>


> <DrugBank ID of Ligand>


> <IUPHAR_GRAC ID of Ligand>


> <KEGG ID of Ligand>


> <ZINC ID of Ligand>
ZINC00006989

> <Number of Protein Chains in Target (>1 implies a multichain complex)>
1

> <BindingDB Target Chain Sequence>
MAAQKNNAPKEYGADSITILEGLEAVRKRPGMYIGSTGERGLHHLIWEVVDNAVDEAMAGFATRVDVKIHADGSVEVRDDGRGIPVEMHATGMPTIDVVMTQLHAGGKFDGETYAVSGGLHGVGVSVVNALSTRLEATVLRDGYEWFQYYDRSVPGKLKQGGETKETGTTIRFWADPEIFETTDYNFETVARRLQEMAFLNKGLTIELTDERVTAEEVVDDVVKDTAEAPKTADEKAAEATGPSKVKHRVFHYPGGLVDYVKHINRTKTPIQQSIIDFDGKGPGHEVEIAMQWNAGYSESVHTFANTINTHEGGTHEEGFRAALTSVVNRYAKDKKLLKDKDPNLTGDDIREGLAAVISVKVAEPQFEGQTKTKLGNTEVKSFVQKICNEQLQHWFEANPAEAKTVVNKAVSSAQARIAARKARELVRRKSATDIGGLPGKLADCRSTDPSKSELYVVEGDSAGGSAKSGRDSMFQAILPLRGKIINVEKARIDRVLKNTEVQSIITALGTGIHDEFDISKLRYHKIVLMADADVDGQHISTLLLTLLFRFMKPLVENGHIFLAQPPLYKLKWQRSEPEFAYSDRERDGLLEAGRAAGKKINVDDGIQRYKGLGEMDAKELWETTMDPSVRVLRQVTLDDAAAADELFSILMGEDVEARRSFITRNAKDVRFLDV

> <PDB ID(s) of Target Chain>
4BAE

> <UniProt (SwissProt) Recommended Name of Target Chain>
DNA gyrase subunit B

> <UniProt (SwissProt) Entry Name of Target Chain>
GYRB_MYCSM

> <UniProt (SwissProt) Primary ID of Target Chain>
P0C559

> <UniProt (SwissProt) Secondary ID(s) of Target Chain>
P48355,Q59555

> <UniProt (SwissProt) Alternative ID(s) of Target Chain>


> <UniProt (TrEMBL) Submitted Name of Target Chain>


> <UniProt (TrEMBL) Entry Name of Target Chain>


> <UniProt (TrEMBL) Primary ID of Target Chain>


> <UniProt (TrEMBL) Secondary ID(s) of Target Chain>


> <UniProt (TrEMBL) Alternative ID(s) of Target Chain>


$$$$

  SciTegic09081514182D

 19 20  0  0  0  0            999 V2000
    1.2990   -0.7500    0.0000 C   0  0
    1.2990    0.7500    0.0000 C   0  0
    0.0000    1.5000    0.0000 C   0  0
   -1.2990    0.7500    0.0000 C   0  0
   -1.2990   -0.7500    0.0000 C   0  0
    0.0000   -1.5000    0.0000 C   0  0
   -2.5987   -1.5004    0.0000 C   0  0
   -3.9511   -0.8815    0.0000 S   0  0
   -4.9530   -1.9978    0.0000 C   0  0
   -4.2010   -3.2957    0.0000 C   0  0
   -2.7343   -2.9815    0.0000 C   0  0
   -4.8053   -4.6666    0.0000 C   0  0
   -4.0971   -5.6353    0.0000 O   0  0
   -5.9983   -4.7960    0.0000 N   0  0
   -6.4430   -1.8405    0.0000 N   0  0
   -7.0537   -0.4695    0.0000 C   0  0
   -6.3482    0.5012    0.0000 O   0  0
   -8.5462   -0.3119    0.0000 C   0  0
   -9.0344    0.7843    0.0000 C   0  0
  1  2  2  0
  2  3  1  0
  3  4  2  0
  4  5  1  0
  5  6  2  0
  6  1  1  0
  7  8  1  0
  8  9  1  0
  9 10  2  0
 10 11  1  0
 11  7  2  0
  5  7  1  0
 10 12  1  0
 12 13  2  0
 12 14  1  0
  9 15  1  0
 15 16  1  0
 16 17  2  0
 16 18  1  0
 18 19  1  0
M  END
> <From> 
www.bindingDB.org

> <BindingDB Reactant_set_id>
50302348

> <Ligand InChI>
InChI=1S/C14H14N2O2S/c1-2-12(17)16-14-10(13(15)18)8-11(19-14)9-6-4-3-5-7-9/h3-8H,2H2,1H3,(H2,15,18)(H,16,17)

> <Ligand InChI Key>
YXDFWXLOESFLJI-UHFFFAOYSA-N

> <BindingDB MonomerID>
50066111

> <BindingDB Ligand Name>
CHEMBL3402953

> <Target Name Assigned by Curator or DataSource>
DNA gyrase subunit B

> <Target Source Organism According to Curator or DataSource>


> <Ki (nM)>


> <IC50 (nM)>
 11750

> <Kd (nM)>


> <EC50 (nM)>


> <kon (M-1-s-1)>


> <koff (s-1)>


> <pH>


> <Temp C>
25.00

> <Curation/DataSource>
ChEMBL

> <Article DOI>
10.1016/j.bmc.2015.02.032

> <PMID>
25766629

> <PubChem AID>


> <Patent Number>


> <Authors>
Saxena, S; Samala, G; Renuka, J; Sridevi, JP; Yogeeswari, P; Sriram, D

> <Institution>
Birla Institute of Technology&amp; Science-Pilani

> <Link to Ligand in BindingDB>
http://www.bindingdb.org/bind/chemsearch/marvin/MolStructure.jsp?monomerid=50066111

> <Link to Ligand-Target Pair in BindingDB>
http://www.bindingdb.org/jsp/dbsearch/PrimarySearch_ki.jsp?energyterm=kJ/mole&tag=pol&polymerid=50006452&target=DNA+gyrase+subunit+B&column=ki&startPg=0&Increment=50&submit=Search

> <Link to Ligand-Target Pair in BindingDB>
http://www.bindingdb.org/jsp/dbsearch/PrimarySearch_ki.jsp?energyterm=kJ/mole&tag=r21&monomerid=50066111&enzyme=DNA+gyrase+subunit+B&column=ki&startPg=0&Increment=50&submit=Search

> <Ligand HET ID in PDB>


> <PDB ID(s) for Ligand-Target Complex>


> <PubChem CID>
16857869

> <PubChem SID>
103960793

> <ChEBI ID of Ligand>


> <ChEMBL ID of Ligand>
CHEMBL323282

> <DrugBank ID of Ligand>


> <IUPHAR_GRAC ID of Ligand>


> <KEGG ID of Ligand>


> <ZINC ID of Ligand>
ZINC13780701

> <Number of Protein Chains in Target (>1 implies a multichain complex)>
1

> <BindingDB Target Chain Sequence>
MAAQKNNAPKEYGADSITILEGLEAVRKRPGMYIGSTGERGLHHLIWEVVDNAVDEAMAGFATRVDVKIHADGSVEVRDDGRGIPVEMHATGMPTIDVVMTQLHAGGKFDGETYAVSGGLHGVGVSVVNALSTRLEATVLRDGYEWFQYYDRSVPGKLKQGGETKETGTTIRFWADPEIFETTDYNFETVARRLQEMAFLNKGLTIELTDERVTAEEVVDDVVKDTAEAPKTADEKAAEATGPSKVKHRVFHYPGGLVDYVKHINRTKTPIQQSIIDFDGKGPGHEVEIAMQWNAGYSESVHTFANTINTHEGGTHEEGFRAALTSVVNRYAKDKKLLKDKDPNLTGDDIREGLAAVISVKVAEPQFEGQTKTKLGNTEVKSFVQKICNEQLQHWFEANPAEAKTVVNKAVSSAQARIAARKARELVRRKSATDIGGLPGKLADCRSTDPSKSELYVVEGDSAGGSAKSGRDSMFQAILPLRGKIINVEKARIDRVLKNTEVQSIITALGTGIHDEFDISKLRYHKIVLMADADVDGQHISTLLLTLLFRFMKPLVENGHIFLAQPPLYKLKWQRSEPEFAYSDRERDGLLEAGRAAGKKINVDDGIQRYKGLGEMDAKELWETTMDPSVRVLRQVTLDDAAAADELFSILMGEDVEARRSFITRNAKDVRFLDV

> <PDB ID(s) of Target Chain>
4BAE

> <UniProt (SwissProt) Recommended Name of Target Chain>
DNA gyrase subunit B

> <UniProt (SwissProt) Entry Name of Target Chain>
GYRB_MYCSM

> <UniProt (SwissProt) Primary ID of Target Chain>
P0C559

> <UniProt (SwissProt) Secondary ID(s) of Target Chain>
P48355,Q59555

> <UniProt (SwissProt) Alternative ID(s) of Target Chain>


> <UniProt (TrEMBL) Submitted Name of Target Chain>


> <UniProt (TrEMBL) Entry Name of Target Chain>


> <UniProt (TrEMBL) Primary ID of Target Chain>


> <UniProt (TrEMBL) Secondary ID(s) of Target Chain>


> <UniProt (TrEMBL) Alternative ID(s) of Target Chain>


$$$$

  SciTegic04201612532D

 37 40  0  0  0  0            999 V2000
   -1.2964    1.4973    0.0000 N   0  0
   -2.6111    0.7486    0.0000 C   0  0
   -2.6111   -0.7486    0.0000 C   0  0
   -1.2964   -1.4973    0.0000 C   0  0
    0.0000   -0.7486    0.0000 C   0  0
    1.2964   -1.4973    0.0000 C   0  0
    2.5929   -0.7486    0.0000 C   0  0
    2.5929    0.7486    0.0000 C   0  0
    1.2964    1.4973    0.0000 C   0  0
    0.0000    0.7486    0.0000 C   0  0
   -3.9122   -1.4966    0.0000 C   0  0
   -3.9138   -2.4966    0.0000 O   0  0
   -5.2109   -0.7445    0.0000 N   0  0
   -1.2907   -2.9981    0.0000 N   0  0
   -2.5870   -3.7544    0.0000 C   0  0
   -2.5835   -5.2544    0.0000 C   0  0
   -3.8807   -6.0076    0.0000 C   0  0
   -5.1815   -5.2608    0.0000 C   0  0
   -5.1852   -3.7608    0.0000 C   0  0
   -3.8880   -3.0076    0.0000 C   0  0
   -6.4810   -6.0117    0.0000 O   0  0
   -7.7815   -5.2626    0.0000 C   0  0
   -9.0810   -6.0135    0.0000 C   0  0
  -10.3815   -5.2644    0.0000 C   0  0
  -14.2755   -7.5217    0.0000 N   0  0
  -14.2791   -6.0217    0.0000 C   0  0
  -12.9819   -5.2686    0.0000 C   0  0
  -11.6810   -6.0154    0.0000 N   0  0
  -11.6774   -7.5154    0.0000 C   0  0
  -12.9746   -8.2686    0.0000 C   0  0
   -6.2513   -1.3425    0.0000 N   0  0
  -15.5719   -8.2779    0.0000 C   0  0
  -15.5672   -9.4779    0.0000 C   0  0
    3.8926   -1.4991    0.0000 C   0  0
    3.8934   -2.6991    0.0000 F   0  0
    4.9317   -0.8987    0.0000 F   0  0
    4.9322   -2.0986    0.0000 F   0  0
  1  2  2  0
  2  3  1  0
  3  4  2  0
  4  5  1  0
  5  6  2  0
  6  7  1  0
  7  8  2  0
  8  9  1  0
  9 10  2  0
  1 10  1  0
  5 10  1  0
 11 12  2  0
 11 13  1  0
  3 11  1  0
 15 16  1  0
 16 17  2  0
 17 18  1  0
 18 19  2  0
 19 20  1  0
 15 20  2  0
 22 23  1  0
 23 24  1  0
 21 22  1  0
 25 26  1  0
 26 27  1  0
 27 28  1  0
 28 29  1  0
 29 30  1  0
 25 30  1  0
 24 28  1  0
 18 21  1  0
 14 15  1  0
  4 14  1  0
 13 31  1  0
 25 32  1  0
 32 33  1  0
 34 35  1  0
 34 36  1  0
 34 37  1  0
  7 34  1  0
M  END
> <From> 
www.bindingDB.org

> <BindingDB Reactant_set_id>
50426767

> <Ligand InChI>
InChI=1S/C26H31F3N6O2/c1-2-34-11-13-35(14-12-34)10-3-15-37-20-7-5-19(6-8-20)32-24-21-16-18(26(27,28)29)4-9-23(21)31-17-22(24)25(36)33-30/h4-9,16-17H,2-3,10-15,30H2,1H3,(H,31,32)(H,33,36)

> <Ligand InChI Key>
AHLKLRDDXSSMDS-UHFFFAOYSA-N

> <BindingDB MonomerID>
50126479

> <BindingDB Ligand Name>
CHEMBL3628450

> <Target Name Assigned by Curator or DataSource>
DNA gyrase subunit B

> <Target Source Organism According to Curator or DataSource>


> <Ki (nM)>


> <IC50 (nM)>
 11880

> <Kd (nM)>


> <EC50 (nM)>


> <kon (M-1-s-1)>


> <koff (s-1)>


> <pH>


> <Temp C>


> <Curation/DataSource>
ChEMBL

> <Article DOI>
10.1016/j.ejmech.2015.06.032

> <PMID>
26318054

> <PubChem AID>


> <Patent Number>


> <Authors>
Medapi, B; Suryadevara, P; Renuka, J; Sridevi, JP; Yogeeswari, P; Sriram, D

> <Institution>
Birla Institute of Technology&amp;Science

> <Link to Ligand in BindingDB>
http://www.bindingdb.org/bind/chemsearch/marvin/MolStructure.jsp?monomerid=50126479

> <Link to Ligand-Target Pair in BindingDB>
http://www.bindingdb.org/jsp/dbsearch/PrimarySearch_ki.jsp?energyterm=kJ/mole&tag=pol&polymerid=50006452&target=DNA+gyrase+subunit+B&column=ki&startPg=0&Increment=50&submit=Search

> <Link to Ligand-Target Pair in BindingDB>
http://www.bindingdb.org/jsp/dbsearch/PrimarySearch_ki.jsp?energyterm=kJ/mole&tag=r21&monomerid=50126479&enzyme=DNA+gyrase+subunit+B&column=ki&startPg=0&Increment=50&submit=Search

> <Ligand HET ID in PDB>


> <PDB ID(s) for Ligand-Target Complex>


> <PubChem CID>
122193464

> <PubChem SID>
104018555

> <ChEBI ID of Ligand>


> <ChEMBL ID of Ligand>
CHEMBL34395

> <DrugBank ID of Ligand>


> <IUPHAR_GRAC ID of Ligand>


> <KEGG ID of Ligand>


> <ZINC ID of Ligand>
ZINC29218297

> <Number of Protein Chains in Target (>1 implies a multichain complex)>
1

> <BindingDB Target Chain Sequence>
MAAQKNNAPKEYGADSITILEGLEAVRKRPGMYIGSTGERGLHHLIWEVVDNAVDEAMAGFATRVDVKIHADGSVEVRDDGRGIPVEMHATGMPTIDVVMTQLHAGGKFDGETYAVSGGLHGVGVSVVNALSTRLEATVLRDGYEWFQYYDRSVPGKLKQGGETKETGTTIRFWADPEIFETTDYNFETVARRLQEMAFLNKGLTIELTDERVTAEEVVDDVVKDTAEAPKTADEKAAEATGPSKVKHRVFHYPGGLVDYVKHINRTKTPIQQSIIDFDGKGPGHEVEIAMQWNAGYSESVHTFANTINTHEGGTHEEGFRAALTSVVNRYAKDKKLLKDKDPNLTGDDIREGLAAVISVKVAEPQFEGQTKTKLGNTEVKSFVQKICNEQLQHWFEANPAEAKTVVNKAVSSAQARIAARKARELVRRKSATDIGGLPGKLADCRSTDPSKSELYVVEGDSAGGSAKSGRDSMFQAILPLRGKIINVEKARIDRVLKNTEVQSIITALGTGIHDEFDISKLRYHKIVLMADADVDGQHISTLLLTLLFRFMKPLVENGHIFLAQPPLYKLKWQRSEPEFAYSDRERDGLLEAGRAAGKKINVDDGIQRYKGLGEMDAKELWETTMDPSVRVLRQVTLDDAAAADELFSILMGEDVEARRSFITRNAKDVRFLDV

> <PDB ID(s) of Target Chain>
4BAE

> <UniProt (SwissProt) Recommended Name of Target Chain>
DNA gyrase subunit B

> <UniProt (SwissProt) Entry Name of Target Chain>
GYRB_MYCSM

> <UniProt (SwissProt) Primary ID of Target Chain>
P0C559

> <UniProt (SwissProt) Secondary ID(s) of Target Chain>
P48355,Q59555

> <UniProt (SwissProt) Alternative ID(s) of Target Chain>


> <UniProt (TrEMBL) Submitted Name of Target Chain>


> <UniProt (TrEMBL) Entry Name of Target Chain>


> <UniProt (TrEMBL) Primary ID of Target Chain>


> <UniProt (TrEMBL) Secondary ID(s) of Target Chain>


> <UniProt (TrEMBL) Alternative ID(s) of Target Chain>


$$$$

  Mrv0541 04171609262D          

 25 27  0  0  0  0            999 V2000
    0.7145   -0.4125    0.0000 C   0  0  0  0  0  0  0  0  0  0  0  0
    0.7145    0.4125    0.0000 C   0  0  0  0  0  0  0  0  0  0  0  0
    0.0000    0.8250    0.0000 C   0  0  0  0  0  0  0  0  0  0  0  0
   -0.7145    0.4125    0.0000 C   0  0  0  0  0  0  0  0  0  0  0  0
   -0.7145   -0.4125    0.0000 C   0  0  0  0  0  0  0  0  0  0  0  0
    0.0000   -0.8250    0.0000 C   0  0  0  0  0  0  0  0  0  0  0  0
   -1.4293   -0.8252    0.0000 C   0  0  0  0  0  0  0  0  0  0  0  0
   -2.1731   -0.4848    0.0000 S   0  0  0  0  0  0  0  0  0  0  0  0
   -2.7242   -1.0988    0.0000 C   0  0  0  0  0  0  0  0  0  0  0  0
   -2.3106   -1.8127    0.0000 C   0  0  0  0  0  0  0  0  0  0  0  0
   -1.5039   -1.6398    0.0000 C   0  0  0  0  0  0  0  0  0  0  0  0
   -2.6429   -2.5667    0.0000 C   0  0  0  0  0  0  0  0  0  0  0  0
   -2.2534   -3.0994    0.0000 O   0  0  0  0  0  0  0  0  0  0  0  0
   -3.2991   -2.6378    0.0000 N   0  0  0  0  0  0  0  0  0  0  0  0
   -3.5437   -1.0123    0.0000 N   0  0  0  0  0  0  0  0  0  0  0  0
   -3.8796   -0.2582    0.0000 C   0  0  0  0  0  0  0  0  0  0  0  0
   -4.7005   -0.1715    0.0000 N   0  0  0  0  0  0  0  0  0  0  0  0
   -3.4915    0.2757    0.0000 O   0  0  0  0  0  0  0  0  0  0  0  0
   -5.0363    0.5825    0.0000 C   0  0  0  0  0  0  0  0  0  0  0  0
   -5.8566    0.6703    0.0000 C   0  0  0  0  0  0  0  0  0  0  0  0
   -6.1908    1.4246    0.0000 C   0  0  0  0  0  0  0  0  0  0  0  0
   -5.7046    2.0912    0.0000 C   0  0  0  0  0  0  0  0  0  0  0  0
   -4.8843    2.0034    0.0000 C   0  0  0  0  0  0  0  0  0  0  0  0
   -4.5501    1.2491    0.0000 C   0  0  0  0  0  0  0  0  0  0  0  0
   -5.9719    2.6946    0.0000 Br  0  0  0  0  0  0  0  0  0  0  0  0
  1  2  4  0  0  0  0
  2  3  4  0  0  0  0
  3  4  4  0  0  0  0
  4  5  4  0  0  0  0
  5  6  4  0  0  0  0
  6  1  4  0  0  0  0
  7  8  4  0  0  0  0
  8  9  4  0  0  0  0
  9 10  4  0  0  0  0
 10 11  4  0  0  0  0
 11  7  4  0  0  0  0
  5  7  1  0  0  0  0
 10 12  1  0  0  0  0
 12 13  2  0  0  0  0
 12 14  1  0  0  0  0
  9 15  1  0  0  0  0
 15 16  1  0  0  0  0
 16 17  1  0  0  0  0
 16 18  2  0  0  0  0
 17 19  1  0  0  0  0
 19 20  4  0  0  0  0
 20 21  4  0  0  0  0
 21 22  4  0  0  0  0
 22 23  4  0  0  0  0
 23 24  4  0  0  0  0
 24 19  4  0  0  0  0
 22 25  1  0  0  0  0
M  END
> <From> 
www.bindingDB.org

> <BindingDB Reactant_set_id>
50302313

> <Ligand InChI>
InChI=1S/C18H14BrN3O2S/c19-12-6-8-13(9-7-12)21-18(24)22-17-14(16(20)23)10-15(25-17)11-4-2-1-3-5-11/h1-10H,(H2,20,23)(H2,21,22,24)

> <Ligand InChI Key>
JQZCYQPWRJDBRE-UHFFFAOYSA-N

> <BindingDB MonomerID>
50066080

> <BindingDB Ligand Name>
CHEMBL3402929

> <Target Name Assigned by Curator or DataSource>
DNA gyrase subunit B

> <Target Source Organism According to Curator or DataSource>


> <Ki (nM)>


> <IC50 (nM)>
 12170

> <Kd (nM)>


> <EC50 (nM)>


> <kon (M-1-s-1)>


> <koff (s-1)>


> <pH>


> <Temp C>
25.00

> <Curation/DataSource>
ChEMBL

> <Article DOI>
10.1016/j.bmc.2015.02.032

> <PMID>
25766629

> <PubChem AID>


> <Patent Number>


> <Authors>
Saxena, S; Samala, G; Renuka, J; Sridevi, JP; Yogeeswari, P; Sriram, D

> <Institution>
Birla Institute of Technology&amp; Science-Pilani

> <Link to Ligand in BindingDB>
http://www.bindingdb.org/bind/chemsearch/marvin/MolStructure.jsp?monomerid=50066080

> <Link to Ligand-Target Pair in BindingDB>
http://www.bindingdb.org/jsp/dbsearch/PrimarySearch_ki.jsp?energyterm=kJ/mole&tag=pol&polymerid=50006452&target=DNA+gyrase+subunit+B&column=ki&startPg=0&Increment=50&submit=Search

> <Link to Ligand-Target Pair in BindingDB>
http://www.bindingdb.org/jsp/dbsearch/PrimarySearch_ki.jsp?energyterm=kJ/mole&tag=r21&monomerid=50066080&enzyme=DNA+gyrase+subunit+B&column=ki&startPg=0&Increment=50&submit=Search

> <Ligand HET ID in PDB>


> <PDB ID(s) for Ligand-Target Complex>


> <PubChem CID>
118729457

> <PubChem SID>
313071607

> <ChEBI ID of Ligand>


> <ChEMBL ID of Ligand>


> <DrugBank ID of Ligand>


> <IUPHAR_GRAC ID of Ligand>


> <KEGG ID of Ligand>


> <ZINC ID of Ligand>


> <Number of Protein Chains in Target (>1 implies a multichain complex)>
1

> <BindingDB Target Chain Sequence>
MAAQKNNAPKEYGADSITILEGLEAVRKRPGMYIGSTGERGLHHLIWEVVDNAVDEAMAGFATRVDVKIHADGSVEVRDDGRGIPVEMHATGMPTIDVVMTQLHAGGKFDGETYAVSGGLHGVGVSVVNALSTRLEATVLRDGYEWFQYYDRSVPGKLKQGGETKETGTTIRFWADPEIFETTDYNFETVARRLQEMAFLNKGLTIELTDERVTAEEVVDDVVKDTAEAPKTADEKAAEATGPSKVKHRVFHYPGGLVDYVKHINRTKTPIQQSIIDFDGKGPGHEVEIAMQWNAGYSESVHTFANTINTHEGGTHEEGFRAALTSVVNRYAKDKKLLKDKDPNLTGDDIREGLAAVISVKVAEPQFEGQTKTKLGNTEVKSFVQKICNEQLQHWFEANPAEAKTVVNKAVSSAQARIAARKARELVRRKSATDIGGLPGKLADCRSTDPSKSELYVVEGDSAGGSAKSGRDSMFQAILPLRGKIINVEKARIDRVLKNTEVQSIITALGTGIHDEFDISKLRYHKIVLMADADVDGQHISTLLLTLLFRFMKPLVENGHIFLAQPPLYKLKWQRSEPEFAYSDRERDGLLEAGRAAGKKINVDDGIQRYKGLGEMDAKELWETTMDPSVRVLRQVTLDDAAAADELFSILMGEDVEARRSFITRNAKDVRFLDV

> <PDB ID(s) of Target Chain>
4BAE

> <UniProt (SwissProt) Recommended Name of Target Chain>
DNA gyrase subunit B

> <UniProt (SwissProt) Entry Name of Target Chain>
GYRB_MYCSM

> <UniProt (SwissProt) Primary ID of Target Chain>
P0C559

> <UniProt (SwissProt) Secondary ID(s) of Target Chain>
P48355,Q59555

> <UniProt (SwissProt) Alternative ID(s) of Target Chain>


> <UniProt (TrEMBL) Submitted Name of Target Chain>


> <UniProt (TrEMBL) Entry Name of Target Chain>


> <UniProt (TrEMBL) Primary ID of Target Chain>


> <UniProt (TrEMBL) Secondary ID(s) of Target Chain>


> <UniProt (TrEMBL) Alternative ID(s) of Target Chain>


$$$$

  SciTegic09081514182D

 29 32  0  0  0  0            999 V2000
   -2.6111    0.7486    0.0000 C   0  0
   -2.6111   -0.7486    0.0000 C   0  0
   -1.2964   -1.4973    0.0000 C   0  0
   -1.2964    1.4973    0.0000 C   0  0
    0.0000    0.7486    0.0000 C   0  0
    0.0000   -0.7486    0.0000 C   0  0
    1.2964   -1.4973    0.0000 N   0  0
    2.5929   -0.7486    0.0000 C   0  0
    2.5929    0.7486    0.0000 C   0  0
    1.2964    1.4973    0.0000 C   0  0
    1.2964    2.9980    0.0000 N   0  0
   -0.0014    3.7503    0.0000 C   0  0
    0.0011    5.2503    0.0000 C   0  0
    1.3014    5.9981    0.0000 C   0  0
    2.5992    5.2460    0.0000 C   0  0
    2.5967    3.7460    0.0000 C   0  0
    1.3069    7.4990    0.0000 N   0  0
    2.6090    8.2454    0.0000 C   0  0
    3.6462    7.6419    0.0000 O   0  0
    2.6145    9.7462    0.0000 N   0  0
    3.9166   10.4926    0.0000 C   0  0
    3.9243   11.9926    0.0000 C   0  0
    5.2272   12.7360    0.0000 C   0  0
    6.5224   11.9794    0.0000 C   0  0
    6.5147   10.4794    0.0000 C   0  0
    5.2119    9.7360    0.0000 C   0  0
    3.6321   -1.3486    0.0000 C   0  0
   -3.9091    1.5019    0.0000 O   0  0
   -3.9072    2.7019    0.0000 C   0  0
  1  2  2  0
  2  3  1  0
  3  6  2  0
  5  4  2  0
  4  1  1  0
  5  6  1  0
  6  7  1  0
  7  8  2  0
  8  9  1  0
  9 10  2  0
 10  5  1  0
 11 12  1  0
 11 16  1  0
 12 13  1  0
 13 14  1  0
 14 15  1  0
 15 16  1  0
 10 11  1  0
 14 17  1  0
 17 18  1  0
 18 19  2  0
 18 20  1  0
 20 21  1  0
 21 22  2  0
 22 23  1  0
 23 24  2  0
 24 25  1  0
 25 26  2  0
 26 21  1  0
  8 27  1  0
  1 28  1  0
 28 29  1  0
M  END
> <From> 
www.bindingDB.org

> <BindingDB Reactant_set_id>
50303813

> <Ligand InChI>
InChI=1S/C23H26N4O2/c1-16-14-22(20-15-19(29-2)8-9-21(20)24-16)27-12-10-18(11-13-27)26-23(28)25-17-6-4-3-5-7-17/h3-9,14-15,18H,10-13H2,1-2H3,(H2,25,26,28)

> <Ligand InChI Key>
FYQVCYFBVNMSOJ-UHFFFAOYSA-N

> <BindingDB MonomerID>
50066961

> <BindingDB Ligand Name>
CHEMBL3403248

> <Target Name Assigned by Curator or DataSource>
DNA gyrase subunit B

> <Target Source Organism According to Curator or DataSource>


> <Ki (nM)>


> <IC50 (nM)>
 12180

> <Kd (nM)>


> <EC50 (nM)>


> <kon (M-1-s-1)>


> <koff (s-1)>


> <pH>


> <Temp C>


> <Curation/DataSource>
ChEMBL

> <Article DOI>
10.1016/j.bmc.2015.03.004

> <PMID>
25801151

> <PubChem AID>


> <Patent Number>


> <Authors>
Medapi, B; Renuka, J; Saxena, S; Sridevi, JP; Medishetti, R; Kulkarni, P; Yogeeswari, P; Sriram, D

> <Institution>
Birla Institute of Technology&amp; Science-Pilani

> <Link to Ligand in BindingDB>
http://www.bindingdb.org/bind/chemsearch/marvin/MolStructure.jsp?monomerid=50066961

> <Link to Ligand-Target Pair in BindingDB>
http://www.bindingdb.org/jsp/dbsearch/PrimarySearch_ki.jsp?energyterm=kJ/mole&tag=pol&polymerid=50006452&target=DNA+gyrase+subunit+B&column=ki&startPg=0&Increment=50&submit=Search

> <Link to Ligand-Target Pair in BindingDB>
http://www.bindingdb.org/jsp/dbsearch/PrimarySearch_ki.jsp?energyterm=kJ/mole&tag=r21&monomerid=50066961&enzyme=DNA+gyrase+subunit+B&column=ki&startPg=0&Increment=50&submit=Search

> <Ligand HET ID in PDB>


> <PDB ID(s) for Ligand-Target Complex>


> <PubChem CID>
118729664

> <PubChem SID>
103961497

> <ChEBI ID of Ligand>


> <ChEMBL ID of Ligand>
CHEMBL288562

> <DrugBank ID of Ligand>


> <IUPHAR_GRAC ID of Ligand>


> <KEGG ID of Ligand>


> <ZINC ID of Ligand>
ZINC00488387

> <Number of Protein Chains in Target (>1 implies a multichain complex)>
1

> <BindingDB Target Chain Sequence>
MAAQKNNAPKEYGADSITILEGLEAVRKRPGMYIGSTGERGLHHLIWEVVDNAVDEAMAGFATRVDVKIHADGSVEVRDDGRGIPVEMHATGMPTIDVVMTQLHAGGKFDGETYAVSGGLHGVGVSVVNALSTRLEATVLRDGYEWFQYYDRSVPGKLKQGGETKETGTTIRFWADPEIFETTDYNFETVARRLQEMAFLNKGLTIELTDERVTAEEVVDDVVKDTAEAPKTADEKAAEATGPSKVKHRVFHYPGGLVDYVKHINRTKTPIQQSIIDFDGKGPGHEVEIAMQWNAGYSESVHTFANTINTHEGGTHEEGFRAALTSVVNRYAKDKKLLKDKDPNLTGDDIREGLAAVISVKVAEPQFEGQTKTKLGNTEVKSFVQKICNEQLQHWFEANPAEAKTVVNKAVSSAQARIAARKARELVRRKSATDIGGLPGKLADCRSTDPSKSELYVVEGDSAGGSAKSGRDSMFQAILPLRGKIINVEKARIDRVLKNTEVQSIITALGTGIHDEFDISKLRYHKIVLMADADVDGQHISTLLLTLLFRFMKPLVENGHIFLAQPPLYKLKWQRSEPEFAYSDRERDGLLEAGRAAGKKINVDDGIQRYKGLGEMDAKELWETTMDPSVRVLRQVTLDDAAAADELFSILMGEDVEARRSFITRNAKDVRFLDV

> <PDB ID(s) of Target Chain>
4BAE

> <UniProt (SwissProt) Recommended Name of Target Chain>
DNA gyrase subunit B

> <UniProt (SwissProt) Entry Name of Target Chain>
GYRB_MYCSM

> <UniProt (SwissProt) Primary ID of Target Chain>
P0C559

> <UniProt (SwissProt) Secondary ID(s) of Target Chain>
P48355,Q59555

> <UniProt (SwissProt) Alternative ID(s) of Target Chain>


> <UniProt (TrEMBL) Submitted Name of Target Chain>


> <UniProt (TrEMBL) Entry Name of Target Chain>


> <UniProt (TrEMBL) Primary ID of Target Chain>


> <UniProt (TrEMBL) Secondary ID(s) of Target Chain>


> <UniProt (TrEMBL) Alternative ID(s) of Target Chain>


$$$$

  SciTegic12211709172D

 28 31  0  0  0  0            999 V2000
    5.8235   -3.8467    0.0000 C   0  0
    5.1204   -4.2585    0.0000 C   0  0
    5.8198   -3.0295    0.0000 O   0  0
    6.5344   -4.2562    0.0000 N   0  0
    7.2417   -3.8444    0.0000 C   0  0
    7.2380   -3.0272    0.0000 C   0  0
    7.9452   -2.6154    0.0000 C   0  0
    7.9415   -1.7982    0.0000 C   0  0
    7.2347   -1.3928    0.0000 C   0  0
    6.5275   -1.8046    0.0000 C   0  0
    6.5270   -2.6218    0.0000 N   0  0
    5.1200   -5.0756    0.0000 N   0  0
    4.4127   -5.4874    0.0000 C   0  0
    4.4164   -6.3046    0.0000 C   0  0
    5.1274   -6.7100    0.0000 N   0  0
    5.8305   -6.2982    0.0000 C   0  0
    5.8309   -5.4810    0.0000 C   0  0
    5.1343   -9.1616    0.0000 N   0  0
    5.8374   -8.7498    0.0000 C   0  0
    5.8379   -7.9326    0.0000 C   0  0
    5.1269   -7.5272    0.0000 C   0  0
    4.4238   -7.9390    0.0000 C   0  0
    3.7129   -7.5336    0.0000 C   0  0
    3.0057   -7.9413    0.0000 C   0  0
    3.0094   -8.7585    0.0000 C   0  0
    3.7162   -9.1680    0.0000 C   0  0
    4.4234   -8.7562    0.0000 C   0  0
    2.3021   -9.1703    0.0000 Cl  0  0
  1  2  1  0
  1  3  2  0
  1  4  1  0
  6  7  1  0
  7  8  2  0
  8  9  1  0
  9 10  2  0
 10 11  1  0
  6 11  2  0
  5  6  1  0
  4  5  1  0
 12 13  1  0
 13 14  1  0
 14 15  1  0
 15 16  1  0
 16 17  1  0
 12 17  1  0
 18 19  2  0
 19 20  1  0
 20 21  2  0
 21 22  1  0
 22 23  2  0
 23 24  1  0
 24 25  2  0
 25 26  1  0
 26 27  2  0
 18 27  1  0
 22 27  1  0
 25 28  1  0
 15 21  1  0
  2 12  1  0
M  END
> <From> 
www.bindingDB.org

> <BindingDB Reactant_set_id>
50528058

> <Ligand InChI>
InChI=1S/C21H22ClN5O/c22-16-4-5-18-19(13-16)24-8-6-20(18)27-11-9-26(10-12-27)15-21(28)25-14-17-3-1-2-7-23-17/h1-8,13H,9-12,14-15H2,(H,25,28)

> <Ligand InChI Key>
WWZVEBSYTZIRFV-UHFFFAOYSA-N

> <BindingDB MonomerID>
50202013

> <BindingDB Ligand Name>
CHEMBL3917318

> <Target Name Assigned by Curator or DataSource>
DNA gyrase subunit B

> <Target Source Organism According to Curator or DataSource>


> <Ki (nM)>


> <IC50 (nM)>
 12200

> <Kd (nM)>


> <EC50 (nM)>


> <kon (M-1-s-1)>


> <koff (s-1)>


> <pH>


> <Temp C>


> <Curation/DataSource>
ChEMBL

> <Article DOI>
10.1016/j.ejmech.2016.06.042

> <PMID>
27371925

> <PubChem AID>


> <Patent Number>


> <Authors>
Jeankumar, VU; Reshma, RS; Vats, R; Janupally, R; Saxena, S; Yogeeswari, P; Sriram, D

> <Institution>
Birla Institute of Technology&amp; Science-Pilani

> <Link to Ligand in BindingDB>
http://www.bindingdb.org/bind/chemsearch/marvin/MolStructure.jsp?monomerid=50202013

> <Link to Ligand-Target Pair in BindingDB>
http://www.bindingdb.org/jsp/dbsearch/PrimarySearch_ki.jsp?energyterm=kJ/mole&tag=pol&polymerid=50006452&target=DNA+gyrase+subunit+B&column=ki&startPg=0&Increment=50&submit=Search

> <Link to Ligand-Target Pair in BindingDB>
http://www.bindingdb.org/jsp/dbsearch/PrimarySearch_ki.jsp?energyterm=kJ/mole&tag=r21&monomerid=50202013&enzyme=DNA+gyrase+subunit+B&column=ki&startPg=0&Increment=50&submit=Search

> <Ligand HET ID in PDB>


> <PDB ID(s) for Ligand-Target Complex>


> <PubChem CID>
46981284

> <PubChem SID>
375979572

> <ChEBI ID of Ligand>


> <ChEMBL ID of Ligand>


> <DrugBank ID of Ligand>


> <IUPHAR_GRAC ID of Ligand>


> <KEGG ID of Ligand>


> <ZINC ID of Ligand>


> <Number of Protein Chains in Target (>1 implies a multichain complex)>
1

> <BindingDB Target Chain Sequence>
MAAQKNNAPKEYGADSITILEGLEAVRKRPGMYIGSTGERGLHHLIWEVVDNAVDEAMAGFATRVDVKIHADGSVEVRDDGRGIPVEMHATGMPTIDVVMTQLHAGGKFDGETYAVSGGLHGVGVSVVNALSTRLEATVLRDGYEWFQYYDRSVPGKLKQGGETKETGTTIRFWADPEIFETTDYNFETVARRLQEMAFLNKGLTIELTDERVTAEEVVDDVVKDTAEAPKTADEKAAEATGPSKVKHRVFHYPGGLVDYVKHINRTKTPIQQSIIDFDGKGPGHEVEIAMQWNAGYSESVHTFANTINTHEGGTHEEGFRAALTSVVNRYAKDKKLLKDKDPNLTGDDIREGLAAVISVKVAEPQFEGQTKTKLGNTEVKSFVQKICNEQLQHWFEANPAEAKTVVNKAVSSAQARIAARKARELVRRKSATDIGGLPGKLADCRSTDPSKSELYVVEGDSAGGSAKSGRDSMFQAILPLRGKIINVEKARIDRVLKNTEVQSIITALGTGIHDEFDISKLRYHKIVLMADADVDGQHISTLLLTLLFRFMKPLVENGHIFLAQPPLYKLKWQRSEPEFAYSDRERDGLLEAGRAAGKKINVDDGIQRYKGLGEMDAKELWETTMDPSVRVLRQVTLDDAAAADELFSILMGEDVEARRSFITRNAKDVRFLDV

> <PDB ID(s) of Target Chain>
4BAE

> <UniProt (SwissProt) Recommended Name of Target Chain>
DNA gyrase subunit B

> <UniProt (SwissProt) Entry Name of Target Chain>
GYRB_MYCSM

> <UniProt (SwissProt) Primary ID of Target Chain>
P0C559

> <UniProt (SwissProt) Secondary ID(s) of Target Chain>
P48355,Q59555

> <UniProt (SwissProt) Alternative ID(s) of Target Chain>


> <UniProt (TrEMBL) Submitted Name of Target Chain>


> <UniProt (TrEMBL) Entry Name of Target Chain>


> <UniProt (TrEMBL) Primary ID of Target Chain>


> <UniProt (TrEMBL) Secondary ID(s) of Target Chain>


> <UniProt (TrEMBL) Alternative ID(s) of Target Chain>


$$$$

  Mrv0541 04171609262D          

 28 31  0  0  0  0            999 V2000
   -1.4361    0.4117    0.0000 C   0  0  0  0  0  0  0  0  0  0  0  0
   -1.4361   -0.4117    0.0000 C   0  0  0  0  0  0  0  0  0  0  0  0
   -0.7130   -0.8235    0.0000 C   0  0  0  0  0  0  0  0  0  0  0  0
   -0.7130    0.8235    0.0000 C   0  0  0  0  0  0  0  0  0  0  0  0
    0.0000    0.4117    0.0000 C   0  0  0  0  0  0  0  0  0  0  0  0
    0.0000   -0.4117    0.0000 C   0  0  0  0  0  0  0  0  0  0  0  0
    0.7130   -0.8235    0.0000 N   0  0  0  0  0  0  0  0  0  0  0  0
    1.4261   -0.4117    0.0000 C   0  0  0  0  0  0  0  0  0  0  0  0
    1.4261    0.4117    0.0000 C   0  0  0  0  0  0  0  0  0  0  0  0
    0.7130    0.8235    0.0000 C   0  0  0  0  0  0  0  0  0  0  0  0
    0.7130    1.6489    0.0000 N   0  0  0  0  0  0  0  0  0  0  0  0
   -0.0008    2.0627    0.0000 C   0  0  0  0  0  0  0  0  0  0  0  0
    0.0006    2.8877    0.0000 C   0  0  0  0  0  0  0  0  0  0  0  0
    0.7158    3.2990    0.0000 C   0  0  0  0  0  0  0  0  0  0  0  0
    1.4296    2.8853    0.0000 C   0  0  0  0  0  0  0  0  0  0  0  0
    1.4282    2.0603    0.0000 C   0  0  0  0  0  0  0  0  0  0  0  0
    0.7188    4.1245    0.0000 N   0  0  0  0  0  0  0  0  0  0  0  0
    1.4350    4.5350    0.0000 C   0  0  0  0  0  0  0  0  0  0  0  0
    2.0054    4.2031    0.0000 S   0  0  0  0  0  0  0  0  0  0  0  0
    1.4380    5.3604    0.0000 N   0  0  0  0  0  0  0  0  0  0  0  0
    2.1541    5.7709    0.0000 C   0  0  0  0  0  0  0  0  0  0  0  0
    2.1584    6.5960    0.0000 C   0  0  0  0  0  0  0  0  0  0  0  0
    2.8750    7.0048    0.0000 C   0  0  0  0  0  0  0  0  0  0  0  0
    3.5873    6.5887    0.0000 C   0  0  0  0  0  0  0  0  0  0  0  0
    3.5831    5.7637    0.0000 C   0  0  0  0  0  0  0  0  0  0  0  0
    2.8666    5.3548    0.0000 C   0  0  0  0  0  0  0  0  0  0  0  0
    1.9977   -0.7417    0.0000 C   0  0  0  0  0  0  0  0  0  0  0  0
    4.1606    6.9157    0.0000 Cl  0  0  0  0  0  0  0  0  0  0  0  0
  1  2  4  0  0  0  0
  2  3  4  0  0  0  0
  3  6  4  0  0  0  0
  5  4  4  0  0  0  0
  4  1  4  0  0  0  0
  5  6  4  0  0  0  0
  6  7  4  0  0  0  0
  7  8  4  0  0  0  0
  8  9  4  0  0  0  0
  9 10  4  0  0  0  0
 10  5  4  0  0  0  0
 11 12  1  0  0  0  0
 11 16  1  0  0  0  0
 12 13  1  0  0  0  0
 13 14  1  0  0  0  0
 14 15  1  0  0  0  0
 15 16  1  0  0  0  0
 10 11  1  0  0  0  0
 14 17  1  0  0  0  0
 17 18  1  0  0  0  0
 18 19  2  0  0  0  0
 18 20  1  0  0  0  0
 20 21  1  0  0  0  0
 21 22  4  0  0  0  0
 22 23  4  0  0  0  0
 23 24  4  0  0  0  0
 24 25  4  0  0  0  0
 25 26  4  0  0  0  0
 26 21  4  0  0  0  0
  8 27  1  0  0  0  0
 24 28  1  0  0  0  0
M  END
> <From> 
www.bindingDB.org

> <BindingDB Reactant_set_id>
50303841

> <Ligand InChI>
InChI=1S/C22H23ClN4S/c1-15-14-21(19-4-2-3-5-20(19)24-15)27-12-10-18(11-13-27)26-22(28)25-17-8-6-16(23)7-9-17/h2-9,14,18H,10-13H2,1H3,(H2,25,26,28)

> <Ligand InChI Key>
YRQAXTCFZYJYSG-UHFFFAOYSA-N

> <BindingDB MonomerID>
50067147

> <BindingDB Ligand Name>
CHEMBL3403268

> <Target Name Assigned by Curator or DataSource>
DNA gyrase subunit B

> <Target Source Organism According to Curator or DataSource>


> <Ki (nM)>


> <IC50 (nM)>
 12310

> <Kd (nM)>


> <EC50 (nM)>


> <kon (M-1-s-1)>


> <koff (s-1)>


> <pH>


> <Temp C>


> <Curation/DataSource>
ChEMBL

> <Article DOI>
10.1016/j.bmc.2015.03.004

> <PMID>
25801151

> <PubChem AID>


> <Patent Number>


> <Authors>
Medapi, B; Renuka, J; Saxena, S; Sridevi, JP; Medishetti, R; Kulkarni, P; Yogeeswari, P; Sriram, D

> <Institution>
Birla Institute of Technology&amp; Science-Pilani

> <Link to Ligand in BindingDB>
http://www.bindingdb.org/bind/chemsearch/marvin/MolStructure.jsp?monomerid=50067147

> <Link to Ligand-Target Pair in BindingDB>
http://www.bindingdb.org/jsp/dbsearch/PrimarySearch_ki.jsp?energyterm=kJ/mole&tag=pol&polymerid=50006452&target=DNA+gyrase+subunit+B&column=ki&startPg=0&Increment=50&submit=Search

> <Link to Ligand-Target Pair in BindingDB>
http://www.bindingdb.org/jsp/dbsearch/PrimarySearch_ki.jsp?energyterm=kJ/mole&tag=r21&monomerid=50067147&enzyme=DNA+gyrase+subunit+B&column=ki&startPg=0&Increment=50&submit=Search

> <Ligand HET ID in PDB>


> <PDB ID(s) for Ligand-Target Complex>


> <PubChem CID>
118729684

> <PubChem SID>
313071778

> <ChEBI ID of Ligand>


> <ChEMBL ID of Ligand>


> <DrugBank ID of Ligand>


> <IUPHAR_GRAC ID of Ligand>


> <KEGG ID of Ligand>


> <ZINC ID of Ligand>


> <Number of Protein Chains in Target (>1 implies a multichain complex)>
1

> <BindingDB Target Chain Sequence>
MAAQKNNAPKEYGADSITILEGLEAVRKRPGMYIGSTGERGLHHLIWEVVDNAVDEAMAGFATRVDVKIHADGSVEVRDDGRGIPVEMHATGMPTIDVVMTQLHAGGKFDGETYAVSGGLHGVGVSVVNALSTRLEATVLRDGYEWFQYYDRSVPGKLKQGGETKETGTTIRFWADPEIFETTDYNFETVARRLQEMAFLNKGLTIELTDERVTAEEVVDDVVKDTAEAPKTADEKAAEATGPSKVKHRVFHYPGGLVDYVKHINRTKTPIQQSIIDFDGKGPGHEVEIAMQWNAGYSESVHTFANTINTHEGGTHEEGFRAALTSVVNRYAKDKKLLKDKDPNLTGDDIREGLAAVISVKVAEPQFEGQTKTKLGNTEVKSFVQKICNEQLQHWFEANPAEAKTVVNKAVSSAQARIAARKARELVRRKSATDIGGLPGKLADCRSTDPSKSELYVVEGDSAGGSAKSGRDSMFQAILPLRGKIINVEKARIDRVLKNTEVQSIITALGTGIHDEFDISKLRYHKIVLMADADVDGQHISTLLLTLLFRFMKPLVENGHIFLAQPPLYKLKWQRSEPEFAYSDRERDGLLEAGRAAGKKINVDDGIQRYKGLGEMDAKELWETTMDPSVRVLRQVTLDDAAAADELFSILMGEDVEARRSFITRNAKDVRFLDV

> <PDB ID(s) of Target Chain>
4BAE

> <UniProt (SwissProt) Recommended Name of Target Chain>
DNA gyrase subunit B

> <UniProt (SwissProt) Entry Name of Target Chain>
GYRB_MYCSM

> <UniProt (SwissProt) Primary ID of Target Chain>
P0C559

> <UniProt (SwissProt) Secondary ID(s) of Target Chain>
P48355,Q59555

> <UniProt (SwissProt) Alternative ID(s) of Target Chain>


> <UniProt (TrEMBL) Submitted Name of Target Chain>


> <UniProt (TrEMBL) Entry Name of Target Chain>


> <UniProt (TrEMBL) Primary ID of Target Chain>


> <UniProt (TrEMBL) Secondary ID(s) of Target Chain>


> <UniProt (TrEMBL) Alternative ID(s) of Target Chain>


$$$$

  SciTegic02271514552D

 32 35  0  0  0  0            999 V2000
   10.5430   -5.9440    0.0000 O   0  0
   11.0233   -5.2829    0.0000 C   0  0
   10.5430   -4.6218    0.0000 C   0  0
    9.7658   -4.8743    0.0000 C   0  0
    9.7658   -5.6915    0.0000 C   0  0
    9.0581   -4.4657    0.0000 C   0  0
    8.3503   -4.8743    0.0000 C   0  0
    8.3503   -5.6915    0.0000 C   0  0
    9.0580   -6.1001    0.0000 C   0  0
   11.8405   -5.2829    0.0000 C   0  0
   12.2491   -5.9906    0.0000 O   0  0
   12.2491   -4.5752    0.0000 O   0  0
    7.6426   -4.4657    0.0000 N   0  0
    6.9349   -4.8743    0.0000 C   0  0
    6.2272   -4.4657    0.0000 C   0  0
    6.2272   -3.6485    0.0000 N   0  0
    6.9349   -3.2399    0.0000 C   0  0
    7.6426   -3.6485    0.0000 C   0  0
    5.5195   -3.2399    0.0000 C   0  0
    5.5195   -2.4227    0.0000 O   0  0
    4.8118   -3.6485    0.0000 C   0  0
    4.1041   -3.2399    0.0000 C   0  0
    3.3964   -3.6485    0.0000 C   0  0
    2.6887   -3.2399    0.0000 C   0  0
    2.6887   -2.4227    0.0000 C   0  0
    3.3964   -2.0141    0.0000 C   0  0
    4.1041   -2.4227    0.0000 C   0  0
    1.9810   -2.0141    0.0000 F   0  0
   13.0663   -4.5752    0.0000 C   0  0
   13.4749   -3.8675    0.0000 C   0  0
    4.8118   -2.0141    0.0000 F   0  0
    3.3964   -4.4657    0.0000 F   0  0
  1  2  1  0
  2  3  2  0
  3  4  1  0
  4  5  1  0
  1  5  1  0
  6  7  1  0
  7  8  2  0
  8  9  1  0
  5  9  2  0
  4  6  2  0
 10 11  2  0
 10 12  1  0
  2 10  1  0
 13 14  1  0
 14 15  1  0
 15 16  1  0
 16 17  1  0
 17 18  1  0
 13 18  1  0
 19 20  2  0
 19 21  1  0
 22 23  1  0
 23 24  2  0
 24 25  1  0
 25 26  2  0
 26 27  1  0
 22 27  2  0
 25 28  1  0
 21 22  1  0
 16 19  1  0
  7 13  1  0
 29 30  1  0
 12 29  1  0
 27 31  1  0
 23 32  1  0
M  END
> <From> 
www.bindingDB.org

> <BindingDB Reactant_set_id>
50369962

> <Ligand InChI>
InChI=1S/C23H21F3N2O4/c1-2-31-23(30)21-10-14-9-16(3-4-20(14)32-21)27-5-7-28(8-6-27)22(29)13-17-18(25)11-15(24)12-19(17)26/h3-4,9-12H,2,5-8,13H2,1H3

> <Ligand InChI Key>
FYEZYDPXJPPTLL-UHFFFAOYSA-N

> <BindingDB MonomerID>
50100692

> <BindingDB Ligand Name>
CHEMBL3323157

> <Target Name Assigned by Curator or DataSource>
DNA gyrase subunit B

> <Target Source Organism According to Curator or DataSource>


> <Ki (nM)>


> <IC50 (nM)>
 12400

> <Kd (nM)>


> <EC50 (nM)>


> <kon (M-1-s-1)>


> <koff (s-1)>


> <pH>


> <Temp C>


> <Curation/DataSource>
ChEMBL

> <Article DOI>
10.1016/j.bmc.2014.06.041

> <PMID>
25129171

> <PubChem AID>


> <Patent Number>


> <Authors>
Renuka, J; Reddy, KI; Srihari, K; Jeankumar, VU; Shravan, M; Sridevi, JP; Yogeeswari, P; Babu, KS; Sriram, D

> <Institution>
Institute of Technology&amp; Science-Pilani

> <Link to Ligand in BindingDB>
http://www.bindingdb.org/bind/chemsearch/marvin/MolStructure.jsp?monomerid=50100692

> <Link to Ligand-Target Pair in BindingDB>
http://www.bindingdb.org/jsp/dbsearch/PrimarySearch_ki.jsp?energyterm=kJ/mole&tag=pol&polymerid=50006452&target=DNA+gyrase+subunit+B&column=ki&startPg=0&Increment=50&submit=Search

> <Link to Ligand-Target Pair in BindingDB>
http://www.bindingdb.org/jsp/dbsearch/PrimarySearch_ki.jsp?energyterm=kJ/mole&tag=r21&monomerid=50100692&enzyme=DNA+gyrase+subunit+B&column=ki&startPg=0&Increment=50&submit=Search

> <Ligand HET ID in PDB>


> <PDB ID(s) for Ligand-Target Complex>


> <PubChem CID>
118710569

> <PubChem SID>
103997420

> <ChEBI ID of Ligand>


> <ChEMBL ID of Ligand>
CHEMBL74527

> <DrugBank ID of Ligand>


> <IUPHAR_GRAC ID of Ligand>


> <KEGG ID of Ligand>


> <ZINC ID of Ligand>
ZINC26375594

> <Number of Protein Chains in Target (>1 implies a multichain complex)>
1

> <BindingDB Target Chain Sequence>
MAAQKNNAPKEYGADSITILEGLEAVRKRPGMYIGSTGERGLHHLIWEVVDNAVDEAMAGFATRVDVKIHADGSVEVRDDGRGIPVEMHATGMPTIDVVMTQLHAGGKFDGETYAVSGGLHGVGVSVVNALSTRLEATVLRDGYEWFQYYDRSVPGKLKQGGETKETGTTIRFWADPEIFETTDYNFETVARRLQEMAFLNKGLTIELTDERVTAEEVVDDVVKDTAEAPKTADEKAAEATGPSKVKHRVFHYPGGLVDYVKHINRTKTPIQQSIIDFDGKGPGHEVEIAMQWNAGYSESVHTFANTINTHEGGTHEEGFRAALTSVVNRYAKDKKLLKDKDPNLTGDDIREGLAAVISVKVAEPQFEGQTKTKLGNTEVKSFVQKICNEQLQHWFEANPAEAKTVVNKAVSSAQARIAARKARELVRRKSATDIGGLPGKLADCRSTDPSKSELYVVEGDSAGGSAKSGRDSMFQAILPLRGKIINVEKARIDRVLKNTEVQSIITALGTGIHDEFDISKLRYHKIVLMADADVDGQHISTLLLTLLFRFMKPLVENGHIFLAQPPLYKLKWQRSEPEFAYSDRERDGLLEAGRAAGKKINVDDGIQRYKGLGEMDAKELWETTMDPSVRVLRQVTLDDAAAADELFSILMGEDVEARRSFITRNAKDVRFLDV

> <PDB ID(s) of Target Chain>
4BAE

> <UniProt (SwissProt) Recommended Name of Target Chain>
DNA gyrase subunit B

> <UniProt (SwissProt) Entry Name of Target Chain>
GYRB_MYCSM

> <UniProt (SwissProt) Primary ID of Target Chain>
P0C559

> <UniProt (SwissProt) Secondary ID(s) of Target Chain>
P48355,Q59555

> <UniProt (SwissProt) Alternative ID(s) of Target Chain>


> <UniProt (TrEMBL) Submitted Name of Target Chain>


> <UniProt (TrEMBL) Entry Name of Target Chain>


> <UniProt (TrEMBL) Primary ID of Target Chain>


> <UniProt (TrEMBL) Secondary ID(s) of Target Chain>


> <UniProt (TrEMBL) Alternative ID(s) of Target Chain>


$$$$

  SciTegic04201612532D

 35 38  0  0  0  0            999 V2000
   -1.2964    1.4973    0.0000 N   0  0
   -2.6111    0.7486    0.0000 C   0  0
   -2.6111   -0.7486    0.0000 C   0  0
   -1.2964   -1.4973    0.0000 C   0  0
    0.0000   -0.7486    0.0000 C   0  0
    1.2964   -1.4973    0.0000 C   0  0
    2.5929   -0.7486    0.0000 C   0  0
    2.5929    0.7486    0.0000 C   0  0
    1.2964    1.4973    0.0000 C   0  0
    0.0000    0.7486    0.0000 C   0  0
   -3.9122   -1.4966    0.0000 C   0  0
   -3.9138   -2.4966    0.0000 O   0  0
   -5.2109   -0.7445    0.0000 N   0  0
   -1.2907   -2.9981    0.0000 N   0  0
   -2.5870   -3.7544    0.0000 C   0  0
   -2.5835   -5.2544    0.0000 C   0  0
   -3.8807   -6.0076    0.0000 C   0  0
   -5.1815   -5.2608    0.0000 C   0  0
   -5.1852   -3.7608    0.0000 C   0  0
   -3.8880   -3.0076    0.0000 C   0  0
   -6.4810   -6.0117    0.0000 O   0  0
   -7.7815   -5.2626    0.0000 C   0  0
   -9.0810   -6.0135    0.0000 C   0  0
  -10.3815   -5.2644    0.0000 C   0  0
  -14.2755   -7.5217    0.0000 N   0  0
  -14.2791   -6.0217    0.0000 C   0  0
  -12.9819   -5.2686    0.0000 C   0  0
  -11.6810   -6.0154    0.0000 N   0  0
  -11.6774   -7.5154    0.0000 C   0  0
  -12.9746   -8.2686    0.0000 C   0  0
   -6.2513   -1.3425    0.0000 N   0  0
  -15.5719   -8.2779    0.0000 C   0  0
  -15.5672   -9.4779    0.0000 C   0  0
    3.8942   -1.4964    0.0000 O   0  0
    4.9326   -0.8949    0.0000 C   0  0
  1  2  2  0
  2  3  1  0
  3  4  2  0
  4  5  1  0
  5  6  2  0
  6  7  1  0
  7  8  2  0
  8  9  1  0
  9 10  2  0
  1 10  1  0
  5 10  1  0
 11 12  2  0
 11 13  1  0
  3 11  1  0
 15 16  1  0
 16 17  2  0
 17 18  1  0
 18 19  2  0
 19 20  1  0
 15 20  2  0
 22 23  1  0
 23 24  1  0
 21 22  1  0
 25 26  1  0
 26 27  1  0
 27 28  1  0
 28 29  1  0
 29 30  1  0
 25 30  1  0
 24 28  1  0
 18 21  1  0
 14 15  1  0
  4 14  1  0
 13 31  1  0
 25 32  1  0
 32 33  1  0
 34 35  1  0
  7 34  1  0
M  END
> <From> 
www.bindingDB.org

> <BindingDB Reactant_set_id>
50426769

> <Ligand InChI>
InChI=1S/C26H34N6O3/c1-3-31-12-14-32(15-13-31)11-4-16-35-20-7-5-19(6-8-20)29-25-22-17-21(34-2)9-10-24(22)28-18-23(25)26(33)30-27/h5-10,17-18H,3-4,11-16,27H2,1-2H3,(H,28,29)(H,30,33)

> <Ligand InChI Key>
JBAKTOQVABZRQH-UHFFFAOYSA-N

> <BindingDB MonomerID>
50126547

> <BindingDB Ligand Name>
CHEMBL3628448

> <Target Name Assigned by Curator or DataSource>
DNA gyrase subunit B

> <Target Source Organism According to Curator or DataSource>


> <Ki (nM)>


> <IC50 (nM)>
 12630

> <Kd (nM)>


> <EC50 (nM)>


> <kon (M-1-s-1)>


> <koff (s-1)>


> <pH>


> <Temp C>


> <Curation/DataSource>
ChEMBL

> <Article DOI>
10.1016/j.ejmech.2015.06.032

> <PMID>
26318054

> <PubChem AID>


> <Patent Number>


> <Authors>
Medapi, B; Suryadevara, P; Renuka, J; Sridevi, JP; Yogeeswari, P; Sriram, D

> <Institution>
Birla Institute of Technology&amp;Science

> <Link to Ligand in BindingDB>
http://www.bindingdb.org/bind/chemsearch/marvin/MolStructure.jsp?monomerid=50126547

> <Link to Ligand-Target Pair in BindingDB>
http://www.bindingdb.org/jsp/dbsearch/PrimarySearch_ki.jsp?energyterm=kJ/mole&tag=pol&polymerid=50006452&target=DNA+gyrase+subunit+B&column=ki&startPg=0&Increment=50&submit=Search

> <Link to Ligand-Target Pair in BindingDB>
http://www.bindingdb.org/jsp/dbsearch/PrimarySearch_ki.jsp?energyterm=kJ/mole&tag=r21&monomerid=50126547&enzyme=DNA+gyrase+subunit+B&column=ki&startPg=0&Increment=50&submit=Search

> <Ligand HET ID in PDB>


> <PDB ID(s) for Ligand-Target Complex>


> <PubChem CID>
122193462

> <PubChem SID>
104018622

> <ChEBI ID of Ligand>


> <ChEMBL ID of Ligand>
CHEMBL33425

> <DrugBank ID of Ligand>


> <IUPHAR_GRAC ID of Ligand>


> <KEGG ID of Ligand>


> <ZINC ID of Ligand>
ZINC29234671

> <Number of Protein Chains in Target (>1 implies a multichain complex)>
1

> <BindingDB Target Chain Sequence>
MAAQKNNAPKEYGADSITILEGLEAVRKRPGMYIGSTGERGLHHLIWEVVDNAVDEAMAGFATRVDVKIHADGSVEVRDDGRGIPVEMHATGMPTIDVVMTQLHAGGKFDGETYAVSGGLHGVGVSVVNALSTRLEATVLRDGYEWFQYYDRSVPGKLKQGGETKETGTTIRFWADPEIFETTDYNFETVARRLQEMAFLNKGLTIELTDERVTAEEVVDDVVKDTAEAPKTADEKAAEATGPSKVKHRVFHYPGGLVDYVKHINRTKTPIQQSIIDFDGKGPGHEVEIAMQWNAGYSESVHTFANTINTHEGGTHEEGFRAALTSVVNRYAKDKKLLKDKDPNLTGDDIREGLAAVISVKVAEPQFEGQTKTKLGNTEVKSFVQKICNEQLQHWFEANPAEAKTVVNKAVSSAQARIAARKARELVRRKSATDIGGLPGKLADCRSTDPSKSELYVVEGDSAGGSAKSGRDSMFQAILPLRGKIINVEKARIDRVLKNTEVQSIITALGTGIHDEFDISKLRYHKIVLMADADVDGQHISTLLLTLLFRFMKPLVENGHIFLAQPPLYKLKWQRSEPEFAYSDRERDGLLEAGRAAGKKINVDDGIQRYKGLGEMDAKELWETTMDPSVRVLRQVTLDDAAAADELFSILMGEDVEARRSFITRNAKDVRFLDV

> <PDB ID(s) of Target Chain>
4BAE

> <UniProt (SwissProt) Recommended Name of Target Chain>
DNA gyrase subunit B

> <UniProt (SwissProt) Entry Name of Target Chain>
GYRB_MYCSM

> <UniProt (SwissProt) Primary ID of Target Chain>
P0C559

> <UniProt (SwissProt) Secondary ID(s) of Target Chain>
P48355,Q59555

> <UniProt (SwissProt) Alternative ID(s) of Target Chain>


> <UniProt (TrEMBL) Submitted Name of Target Chain>


> <UniProt (TrEMBL) Entry Name of Target Chain>


> <UniProt (TrEMBL) Primary ID of Target Chain>


> <UniProt (TrEMBL) Secondary ID(s) of Target Chain>


> <UniProt (TrEMBL) Alternative ID(s) of Target Chain>


$$$$

  Mrv0541 11171616332D          

 29 32  0  0  0  0            999 V2000
    9.4587   -7.6487    0.0000 O   0  0  0  0  0  0  0  0  0  0  0  0
    9.9437   -6.9813    0.0000 C   0  0  0  0  0  0  0  0  0  0  0  0
    9.4587   -6.3139    0.0000 C   0  0  0  0  0  0  0  0  0  0  0  0
    8.6741   -6.5688    0.0000 C   0  0  0  0  0  0  0  0  0  0  0  0
    8.6741   -7.3938    0.0000 C   0  0  0  0  0  0  0  0  0  0  0  0
    7.9596   -6.1563    0.0000 C   0  0  0  0  0  0  0  0  0  0  0  0
    7.2451   -6.5688    0.0000 C   0  0  0  0  0  0  0  0  0  0  0  0
    7.2451   -7.3938    0.0000 C   0  0  0  0  0  0  0  0  0  0  0  0
    7.9596   -7.8063    0.0000 C   0  0  0  0  0  0  0  0  0  0  0  0
   10.7687   -6.9813    0.0000 C   0  0  0  0  0  0  0  0  0  0  0  0
   11.1811   -7.6958    0.0000 O   0  0  0  0  0  0  0  0  0  0  0  0
   11.1811   -6.2669    0.0000 O   0  0  0  0  0  0  0  0  0  0  0  0
    6.5307   -6.1563    0.0000 N   0  0  0  0  0  0  0  0  0  0  0  0
    5.8162   -6.5688    0.0000 C   0  0  0  0  0  0  0  0  0  0  0  0
    5.1017   -6.1563    0.0000 C   0  0  0  0  0  0  0  0  0  0  0  0
    5.1017   -5.3313    0.0000 N   0  0  0  0  0  0  0  0  0  0  0  0
    5.8162   -4.9188    0.0000 C   0  0  0  0  0  0  0  0  0  0  0  0
    6.5307   -5.3313    0.0000 C   0  0  0  0  0  0  0  0  0  0  0  0
    4.3873   -4.9188    0.0000 C   0  0  0  0  0  0  0  0  0  0  0  0
    4.3873   -4.0939    0.0000 O   0  0  0  0  0  0  0  0  0  0  0  0
    3.6728   -5.3313    0.0000 C   0  0  0  0  0  0  0  0  0  0  0  0
    3.6728   -6.1563    0.0000 C   0  0  0  0  0  0  0  0  0  0  0  0
    2.9583   -4.9188    0.0000 N   0  0  0  0  0  0  0  0  0  0  0  0
    2.9583   -6.5688    0.0000 N   0  0  0  0  0  0  0  0  0  0  0  0
    2.2439   -6.1563    0.0000 C   0  0  0  0  0  0  0  0  0  0  0  0
    2.2439   -5.3313    0.0000 C   0  0  0  0  0  0  0  0  0  0  0  0
    4.3873   -6.5688    0.0000 Cl  0  0  0  0  0  0  0  0  0  0  0  0
   12.0061   -6.2669    0.0000 C   0  0  0  0  0  0  0  0  0  0  0  0
   12.4186   -5.5524    0.0000 C   0  0  0  0  0  0  0  0  0  0  0  0
  1  2  4  0  0  0  0
  2  3  4  0  0  0  0
  3  4  4  0  0  0  0
  4  5  4  0  0  0  0
  1  5  4  0  0  0  0
  6  7  4  0  0  0  0
  7  8  4  0  0  0  0
  8  9  4  0  0  0  0
  5  9  4  0  0  0  0
  4  6  4  0  0  0  0
 10 11  2  0  0  0  0
 10 12  1  0  0  0  0
  2 10  1  0  0  0  0
 13 14  1  0  0  0  0
 14 15  1  0  0  0  0
 15 16  1  0  0  0  0
 16 17  1  0  0  0  0
 17 18  1  0  0  0  0
 13 18  1  0  0  0  0
 19 20  2  0  0  0  0
 21 22  4  0  0  0  0
 21 23  4  0  0  0  0
 22 24  4  0  0  0  0
 24 25  4  0  0  0  0
 25 26  4  0  0  0  0
 23 26  4  0  0  0  0
 19 21  1  0  0  0  0
 22 27  1  0  0  0  0
 16 19  1  0  0  0  0
  7 13  1  0  0  0  0
 28 29  1  0  0  0  0
 12 28  1  0  0  0  0
M  END
> <From> 
www.bindingDB.org

> <BindingDB Reactant_set_id>
50369879

> <Ligand InChI>
InChI=1S/C20H19ClN4O4/c1-2-28-20(27)16-12-13-11-14(3-4-15(13)29-16)24-7-9-25(10-8-24)19(26)17-18(21)23-6-5-22-17/h3-6,11-12H,2,7-10H2,1H3

> <Ligand InChI Key>
DKCXNLYWMQFGHQ-UHFFFAOYSA-N

> <BindingDB MonomerID>
50100645

> <BindingDB Ligand Name>
CHEMBL3323170

> <Target Name Assigned by Curator or DataSource>
DNA gyrase subunit B

> <Target Source Organism According to Curator or DataSource>


> <Ki (nM)>


> <IC50 (nM)>
 12660

> <Kd (nM)>


> <EC50 (nM)>


> <kon (M-1-s-1)>


> <koff (s-1)>


> <pH>


> <Temp C>


> <Curation/DataSource>
ChEMBL

> <Article DOI>
10.1016/j.bmc.2014.06.041

> <PMID>
25129171

> <PubChem AID>


> <Patent Number>


> <Authors>
Renuka, J; Reddy, KI; Srihari, K; Jeankumar, VU; Shravan, M; Sridevi, JP; Yogeeswari, P; Babu, KS; Sriram, D

> <Institution>
Institute of Technology&amp; Science-Pilani

> <Link to Ligand in BindingDB>
http://www.bindingdb.org/bind/chemsearch/marvin/MolStructure.jsp?monomerid=50100645

> <Link to Ligand-Target Pair in BindingDB>
http://www.bindingdb.org/jsp/dbsearch/PrimarySearch_ki.jsp?energyterm=kJ/mole&tag=pol&polymerid=50006452&target=DNA+gyrase+subunit+B&column=ki&startPg=0&Increment=50&submit=Search

> <Link to Ligand-Target Pair in BindingDB>
http://www.bindingdb.org/jsp/dbsearch/PrimarySearch_ki.jsp?energyterm=kJ/mole&tag=r21&monomerid=50100645&enzyme=DNA+gyrase+subunit+B&column=ki&startPg=0&Increment=50&submit=Search

> <Ligand HET ID in PDB>


> <PDB ID(s) for Ligand-Target Complex>


> <PubChem CID>
118710581

> <PubChem SID>
318490754

> <ChEBI ID of Ligand>


> <ChEMBL ID of Ligand>


> <DrugBank ID of Ligand>


> <IUPHAR_GRAC ID of Ligand>


> <KEGG ID of Ligand>


> <ZINC ID of Ligand>


> <Number of Protein Chains in Target (>1 implies a multichain complex)>
1

> <BindingDB Target Chain Sequence>
MAAQKNNAPKEYGADSITILEGLEAVRKRPGMYIGSTGERGLHHLIWEVVDNAVDEAMAGFATRVDVKIHADGSVEVRDDGRGIPVEMHATGMPTIDVVMTQLHAGGKFDGETYAVSGGLHGVGVSVVNALSTRLEATVLRDGYEWFQYYDRSVPGKLKQGGETKETGTTIRFWADPEIFETTDYNFETVARRLQEMAFLNKGLTIELTDERVTAEEVVDDVVKDTAEAPKTADEKAAEATGPSKVKHRVFHYPGGLVDYVKHINRTKTPIQQSIIDFDGKGPGHEVEIAMQWNAGYSESVHTFANTINTHEGGTHEEGFRAALTSVVNRYAKDKKLLKDKDPNLTGDDIREGLAAVISVKVAEPQFEGQTKTKLGNTEVKSFVQKICNEQLQHWFEANPAEAKTVVNKAVSSAQARIAARKARELVRRKSATDIGGLPGKLADCRSTDPSKSELYVVEGDSAGGSAKSGRDSMFQAILPLRGKIINVEKARIDRVLKNTEVQSIITALGTGIHDEFDISKLRYHKIVLMADADVDGQHISTLLLTLLFRFMKPLVENGHIFLAQPPLYKLKWQRSEPEFAYSDRERDGLLEAGRAAGKKINVDDGIQRYKGLGEMDAKELWETTMDPSVRVLRQVTLDDAAAADELFSILMGEDVEARRSFITRNAKDVRFLDV

> <PDB ID(s) of Target Chain>
4BAE

> <UniProt (SwissProt) Recommended Name of Target Chain>
DNA gyrase subunit B

> <UniProt (SwissProt) Entry Name of Target Chain>
GYRB_MYCSM

> <UniProt (SwissProt) Primary ID of Target Chain>
P0C559

> <UniProt (SwissProt) Secondary ID(s) of Target Chain>
P48355,Q59555

> <UniProt (SwissProt) Alternative ID(s) of Target Chain>


> <UniProt (TrEMBL) Submitted Name of Target Chain>


> <UniProt (TrEMBL) Entry Name of Target Chain>


> <UniProt (TrEMBL) Primary ID of Target Chain>


> <UniProt (TrEMBL) Secondary ID(s) of Target Chain>


> <UniProt (TrEMBL) Alternative ID(s) of Target Chain>


$$$$
